geometry optimzed in LAMMPS
_audit_creation_date              2020-11-30 
_audit_creation_method            'lammps2cif' 
_symmetry_space_group_name_H-M    'P1' 
_symmetry_Int_Tables_number       1 
_symmetry_cell_setting            triclinic 
loop_ 
_symmetry_equiv_pos_as_xyz 
  x,y,z 
_cell_length_a                    46.31595837825416 
_cell_length_b                    76.53225644583195 
_cell_length_c                    46.538276072410135 
_cell_angle_alpha                 89.88475847891132 
_cell_angle_beta                  90.00849100840873 
_cell_angle_gamma                 90.2601118857908 
loop_ 
_atom_site_label 
_atom_site_type_symbol 
_atom_site_fract_x 
_atom_site_fract_y 
_atom_site_fract_z 
_atom_site_charge 
Zr1        Zr  0.37976655  0.88772948  0.05534697     2.17510
O2          O  0.34179107  0.88367284  0.09107829    -0.51080
O3          O  0.36000783  0.91098416  0.02472321    -0.74280
O4          O  0.37708999  0.91243324  0.08799606    -0.81070
O5          O  0.36487247  0.84073478  0.04680793    -0.82810
O6          O  0.42285545  0.91916947  0.10193486    -0.78440
O7          O  0.34257507  0.86671708  0.04231235    -0.90070
O8          O  0.39468720  0.91519081  0.99085934    -0.76040
O9          O  0.41927738  0.90518994  0.04005157    -0.85530
O10         O  0.39437416  0.87464720  0.01063692    -0.85220
O11         O  0.41518142  0.88495902  0.09262874    -0.71970
O12         O  0.39597981  0.85857388  0.06379156    -0.84110
Zr13       Zr  0.48412022  0.86026007  0.04374085     2.26420
Zr14       Zr  0.45560041  0.90164255  0.07591939     2.06270
Zr15       Zr  0.41058740  0.84493388  0.02018162     2.10050
Zr16       Zr  0.43331144  0.89279229  0.99582867     1.78760
O17         O  0.39225827  0.81513012  0.01693875    -0.92910
O18         O  0.46024049  0.91970062  0.98709531    -0.40720
O19         O  0.44967620  0.86305662  0.00488605    -0.77350
O20         O  0.47100522  0.88975423  0.03123496    -0.96040
O21         O  0.46892289  0.87250982  0.08777000    -0.89340
O22         O  0.44462015  0.84259938  0.05847964    -0.92190
C23         C  0.37057630  0.91939146  0.00308104     1.01570
C24         C  0.34327609  0.85092483  0.05144021     1.14500
C25         C  0.39551963  0.92053751  0.10364991     1.05280
O26         O  0.46711097  0.93159070  0.06217307    -0.94340
O27         O  0.00683974  0.90455247  0.07578718    -0.90080
O28         O  0.02267568  0.87774998  0.06199873    -0.83230
C29         C  0.02639935  0.89324928  0.07135265     1.11920
O30         O  0.38633843  0.85553521  0.13390208    -0.96310
Zr31       Zr  0.42824186  0.85571061  0.10214938     1.88940
O32         O  0.50304993  0.84076625  0.08184093    -0.72960
O33         O  0.47417498  0.90523280  0.12458137    -0.52230
O34         O  0.44203190  0.86738824  0.14890712    -0.96900
O35         O  0.40750086  0.82686091  0.11104482    -0.54120
O36         O  0.46903156  0.83972999  0.11679210    -0.73480
C37         C  0.49337418  0.83548562  0.10639874     0.98860
O38         O  0.02470595  0.86080428  0.01025803    -0.62300
O39         O  0.39040021  0.84387793  0.97183803    -0.57100
O40         O  0.49365330  0.83294224  0.02110992    -0.93790
O41         O  0.44982461  0.82368746  0.00530691    -0.92210
O42         O  0.41040516  0.88626737  0.94998582    -0.92570
O43         O  0.46769835  0.89075704  0.95643189    -0.91350
C44         C  0.47766003  0.82184493  0.00820680     1.17710
H45         H  0.37872055  0.87506000  0.99695090     0.33650
H46         H  0.48783030  0.89597270  0.02433602     0.44500
H47         H  0.45018666  0.83059786  0.06161573     0.38030
H48         H  0.40790979  0.88893276  0.11088396     0.34510
H49         H  0.45059830  0.92511622  0.97032568     0.26300
H50         H  0.47608317  0.91802199  0.12722954     0.32230
H51         H  0.44524526  0.85700942  0.16121980     0.38140
H52         H  0.40881322  0.89771975  0.94018545     0.32600
H53         H  0.37017658  0.84783251  0.97381489     0.31480
H54         H  0.37484434  0.81589598  0.00466578     0.33160
H55         H  0.41998867  0.82154934  0.12592745     0.32130
H56         H  0.48542712  0.88604113  0.96539947     0.36130
H57         H  0.51633843  0.85788463  0.99143205     0.28860
H58         H  0.34002825  0.89422603  0.10313443     0.33090
H59         H  0.39253161  0.84944386  0.15163820     0.35940
H60         H  0.40033897  0.85330786  0.96110032     0.28550
H61         H  0.03009374  0.87328503  0.00829651     0.41430
H62         H  0.44833834  0.93684828  0.05691938     0.31480
H63         H  0.45518055  0.92737021  0.00341550     0.39100
H64         H  0.41147193  0.82005831  0.09342948     0.30950
H65         H  0.45805297  0.90175605  0.13736270     0.31010
H66         H  0.34969796  0.87481904  0.10439606     0.31280
Zr67       Zr  0.24705498  0.88779155  0.11670355     2.17510
O68         O  0.28654087  0.88920704  0.08222409    -0.51080
O69         O  0.26496277  0.90985378  0.14985409    -0.74280
O70         O  0.24825337  0.91339113  0.08633982    -0.81070
O71         O  0.26579325  0.84116903  0.12176083    -0.82810
O72         O  0.20229859  0.91767086  0.07139216    -0.78440
O73         O  0.28714678  0.86774064  0.12352220    -0.90070
O74         O  0.23080237  0.91267623  0.18460551    -0.76040
O75         O  0.20696600  0.90381836  0.13413279    -0.85530
O76         O  0.23471814  0.87418225  0.16151112    -0.85220
O77         O  0.21126263  0.88486255  0.07968847    -0.71970
O78         O  0.23345971  0.85843478  0.10668607    -0.84110
Zr79       Zr  0.14488818  0.85746707  0.12933409     2.26420
Zr80       Zr  0.17041103  0.90019372  0.09884828     2.06270
Zr81       Zr  0.22138259  0.84436556  0.15051558     2.10050
Zr82       Zr  0.19371158  0.89000975  0.17787802     1.78760
O83         O  0.24252231  0.81542843  0.15564255    -0.92910
O84         O  0.16734119  0.91655015  0.18962712    -0.40720
O85         O  0.18027052  0.86017036  0.16717982    -0.77350
O86         O  0.15558154  0.88713909  0.14306300    -0.96040
O87         O  0.15929385  0.87100006  0.08585847    -0.89340
O88         O  0.18580963  0.84125099  0.11336956    -0.92190
C89         C  0.25436077  0.91743397  0.17208106     1.01570
C90         C  0.28674644  0.85168141  0.11571319     1.14500
C91         C  0.22932252  0.92053537  0.07033275     1.05280
O92         O  0.14850178  0.92348446  0.12680114    -0.94340
O93         O  0.12684857  0.88989381  0.07796577    -0.90080
O94         O  0.10555117  0.87608101  0.11474698    -0.83230
C95         C  0.10502340  0.88651172  0.09335608     1.11920
O96         O  0.24552392  0.85400590  0.04364235    -0.96310
Zr97       Zr  0.19981454  0.85525677  0.06947861     1.88940
O98         O  0.12901536  0.83901628  0.08914625    -0.72960
O99         O  0.14556211  0.92007634  0.06598866    -0.52230
O100        O  0.19934856  0.86412846  0.01918831    -0.96900
O101        O  0.20513537  0.82414795  0.05942549    -0.54120
O102        O  0.15175209  0.85174062  0.05213022    -0.73480
C103        C  0.13478087  0.84020684  0.06220664     0.98860
O104        O  0.10309601  0.85327694  0.16080757    -0.62300
O105        O  0.24290085  0.84614768  0.19824724    -0.57100
O106        O  0.14143194  0.82977747  0.15260160    -0.93790
O107        O  0.18646638  0.82162041  0.16648636    -0.92210
O108        O  0.21606946  0.88148480  0.22307575    -0.92570
O109        O  0.15836754  0.88602183  0.21611042    -0.91350
C110        C  0.15893987  0.81911020  0.16442454     1.17710
H111        H  0.25070077  0.87509454  0.17476390     0.33650
H112        H  0.13839732  0.89270272  0.15034116     0.44500
H113        H  0.18104758  0.82910982  0.11021896     0.38030
H114        H  0.21810725  0.88908468  0.06136722     0.34510
H115        H  0.17375612  0.91961941  0.20928631     0.26300
H116        H  0.15338674  0.93192953  0.06963267     0.32230
H117        H  0.19727372  0.85309130  0.00829738     0.38140
H118        H  0.21748403  0.89246675  0.23421604     0.32600
H119        H  0.23637684  0.83537943  0.20817893     0.31480
H120        H  0.26145754  0.81734821  0.16501913     0.33160
H121        H  0.20887814  0.82358876  0.03850101     0.32130
H122        H  0.14130644  0.88087950  0.20641364     0.36130
H123        H  0.11128565  0.85111134  0.18014639     0.28860
H124        H  0.29486135  0.90113725  0.08300249     0.33090
H125        H  0.25548806  0.84363489  0.05153749     0.35940
H126        H  0.26383568  0.84442343  0.19508803     0.28550
H127        H  0.09391941  0.86486616  0.16277355     0.41430
H128        H  0.16192519  0.93350553  0.12461597     0.31480
H129        H  0.17609534  0.92570984  0.17732232     0.39100
H130        H  0.18561960  0.81901529  0.06166115     0.30950
H131        H  0.15239363  0.91700708  0.04647727     0.31010
H132        H  0.27746516  0.88827354  0.06301237     0.31280
Zr133      Zr  0.16009001  0.51272663  0.25896851     2.17510
O134        O  0.14623356  0.52047102  0.30793511    -0.51080
O135        O  0.20443795  0.53039085  0.26187092    -0.74280
O136        O  0.18128847  0.49416046  0.29532389    -0.81070
O137        O  0.11687248  0.55102354  0.23208472    -0.82810
O138        O  0.18240597  0.46655739  0.27766040    -0.78440
O139        O  0.14198304  0.54067775  0.27043820    -0.90070
O140        O  0.22691085  0.53207818  0.21864966    -0.76040
O141        O  0.19512546  0.49794811  0.23126447    -0.85530
O142        O  0.16205346  0.52866006  0.21510669    -0.85220
O143        O  0.13896514  0.48407477  0.25489730    -0.71970
O144        O  0.11138272  0.51237543  0.24030438    -0.84110
Zr145      Zr  0.12849601  0.48410960  0.16219010     2.26420
Zr146      Zr  0.17430041  0.46943667  0.22583115     2.06270
Zr147      Zr  0.11404659  0.52797435  0.19573768     2.10050
Zr148      Zr  0.19650091  0.51378115  0.18693678     1.78760
O149        O  0.06354650  0.53421549  0.20577055    -0.92910
O150        O  0.24523971  0.50220336  0.18282589    -0.40720
O151        O  0.14851737  0.51301446  0.16660317    -0.77350
O152        O  0.17755134  0.48470859  0.18067130    -0.96040
O153        O  0.12624344  0.46846413  0.20614322    -0.89340
O154        O  0.09398655  0.49924920  0.19002462    -0.92190
C155        C  0.22472011  0.53615704  0.24540163     1.01570
C156        C  0.12798578  0.55252638  0.25732443     1.14500
C157        C  0.18462584  0.47767129  0.29815320     1.05280
O158        O  0.22505598  0.46810842  0.21237861    -0.94340
O159        O  0.15839666  0.44515886  0.19624008    -0.90080
O160        O  0.15539939  0.45843346  0.15323662    -0.83230
C161        C  0.15488459  0.44486503  0.16899966     1.11920
O162        O  0.07318095  0.48989111  0.28185623    -0.96310
Zr163      Zr  0.09158359  0.48336007  0.23396986     1.88940
O164        O  0.08810233  0.46265321  0.16098312    -0.72960
O165        O  0.18988912  0.44019986  0.23980437    -0.52230
O166        O  0.09056768  0.45652781  0.26226979    -0.96900
O167        O  0.04174432  0.49353236  0.23257952    -0.54120
O168        O  0.06594408  0.46138436  0.20439199    -0.73480
C169        C  0.06898450  0.45613786  0.17825660     0.98860
O170        O  0.13569012  0.48002504  0.11071643    -0.62300
O171        O  0.12100906  0.55575509  0.17100093    -0.57100
O172        O  0.10362008  0.50172343  0.12696151    -0.93790
O173        O  0.09530745  0.52851314  0.14633585    -0.92210
O174        O  0.19868282  0.54201951  0.16278672    -0.92570
O175        O  0.21227767  0.51028214  0.13734812    -0.91350
C176        C  0.09391921  0.51734412  0.12572609     1.17710
H177        H  0.16844565  0.54055509  0.21802139     0.33650
H178        H  0.19084036  0.47877469  0.16806300     0.44500
H179        H  0.07554893  0.49955909  0.18035808     0.38030
H180        H  0.13597313  0.47890482  0.27356712     0.34510
H181        H  0.25704669  0.51218186  0.17591577     0.26300
H182        H  0.20804113  0.44178003  0.25075952     0.32230
H183        H  0.07045393  0.45218624  0.26076975     0.38140
H184        H  0.21954764  0.54479124  0.16151709     0.32600
H185        H  0.10525641  0.56331905  0.17807926     0.31480
H186        H  0.05704812  0.54131593  0.18920113     0.33160
H187        H  0.03011551  0.48341257  0.23921859     0.32130
H188        H  0.19549354  0.50497699  0.12741741     0.36130
H189        H  0.15678477  0.47868851  0.10813038     0.28860
H190        H  0.16447362  0.52236958  0.31862784     0.33090
H191        H  0.05781228  0.48115499  0.28565916     0.35940
H192        H  0.13881202  0.56077488  0.17946823     0.28550
H193        H  0.12741242  0.46839373  0.10625754     0.41430
H194        H  0.23567096  0.46989554  0.23061884     0.31480
H195        H  0.25166043  0.50040037  0.20290180     0.39100
H196        H  0.03685421  0.49465126  0.21196397     0.30950
H197        H  0.17556564  0.43607290  0.25411796     0.31010
H198        H  0.13754425  0.50979490  0.31640942     0.31280
Zr199      Zr  0.99048296  0.51938255  0.91375164     2.17510
O200        O  0.99489169  0.53090422  0.86491647    -0.51080
O201        O  0.44861226  0.53916472  0.91172287    -0.74280
O202        O  0.47179915  0.50038695  0.87634923    -0.81070
O203        O  0.03391961  0.55555035  0.94462020    -0.82810
O204        O  0.45869564  0.47397789  0.89459945    -0.78440
O205        O  0.02366221  0.54232186  0.90248116    -0.90070
O206        O  0.42359473  0.53894950  0.95357325    -0.76040
O207        O  0.45316304  0.50569851  0.94050303    -0.85530
O208        O  0.98948640  0.53459314  0.95835714    -0.85220
O209        O  0.00731563  0.48973369  0.91782578    -0.71970
O210        O  0.03873303  0.51673644  0.93330201    -0.84110
Zr211      Zr  0.01652185  0.48796135  0.01016210     2.26420
Zr212      Zr  0.46949195  0.47618115  0.94550417     2.06270
Zr213      Zr  0.03715180  0.53149948  0.97864217     2.10050
Zr214      Zr  0.45298132  0.52057340  0.98550911     1.78760
O215        O  0.08809544  0.53476026  0.96675317    -0.92910
O216        O  0.40409147  0.50902993  0.98995927    -0.40720
O217        O  0.00032325  0.51762635  0.00654101    -0.77350
O218        O  0.46810852  0.49076300  0.99133537    -0.96040
O219        O  0.01678906  0.47336435  0.96544404    -0.89340
O220        O  0.05338004  0.50213005  0.98361606    -0.92190
C221        C  0.42740008  0.54419051  0.92758112     1.01570
C222        C  0.02929438  0.55582183  0.91747260     1.14500
C223        C  0.46222948  0.48475599  0.87382900     1.05280
O224        O  0.41702593  0.47383538  0.94573621    -0.94340
O225        O  0.46246974  0.45555148  0.98425538    -0.90080
O226        O  0.50653764  0.45766676  0.00347423    -0.83230
C227        C  0.48145453  0.45103665  0.00269525     1.11920
O228        O  0.07407696  0.49258861  0.89151251    -0.96310
Zr229      Zr  0.05416556  0.48687714  0.93916665     1.88940
O230        O  0.05700282  0.46784664  0.01526228    -0.72960
O231        O  0.47432058  0.44598749  0.92977061    -0.52230
O232        O  0.05323580  0.46005661  0.91099433    -0.96900
O233        O  0.10539366  0.49431436  0.94168784    -0.54120
O234        O  0.07450484  0.46383816  0.97014882    -0.73480
C235        C  0.07293930  0.45974676  0.99700371     0.98860
O236        O  0.49493403  0.48092807  0.05650423    -0.62300
O237        O  0.03903775  0.55904535  0.00471057    -0.57100
O238        O  0.04379160  0.50316726  0.04662974    -0.93790
O239        O  0.05428719  0.53018312  0.02869747    -0.92210
O240        O  0.45326408  0.54939796  0.00760817    -0.92570
O241        O  0.43620097  0.51933033  0.03505324    -0.91350
C242        C  0.05471171  0.51852196  0.04871140     1.17710
H243        H  0.98432161  0.54671103  0.95581086     0.33650
H244        H  0.45451920  0.48512511  0.00411731     0.44500
H245        H  0.07167705  0.50153729  0.99350283     0.38030
H246        H  0.00989240  0.48422510  0.89940931     0.34510
H247        H  0.39208441  0.51931619  0.99462581     0.26300
H248        H  0.45562445  0.44302875  0.92063006     0.32230
H249        H  0.07265307  0.45491383  0.91351838     0.38140
H250        H  0.43277600  0.55303639  0.00772747     0.32600
H251        H  0.05520377  0.56566096  0.99590538     0.31480
H252        H  0.09786525  0.53607645  0.98555413     0.33160
H253        H  0.11545445  0.48361385  0.93529608     0.32130
H254        H  0.44905095  0.51075910  0.04449215     0.36130
H255        H  0.49076426  0.49239956  0.06534058     0.28860
H256        H  0.97516143  0.53103951  0.85670872     0.33090
H257        H  0.08881832  0.48347692  0.88824649     0.35940
H258        H  0.02143413  0.56539494  0.99876343     0.28550
H259        H  0.47567862  0.47602801  0.05187585     0.41430
H260        H  0.41062693  0.48060565  0.92875523     0.31480
H261        H  0.39841996  0.50591970  0.97010111     0.39100
H262        H  0.10998011  0.49512108  0.96240814     0.30950
H263        H  0.48837727  0.44639880  0.91374984     0.31010
H264        H  0.00560969  0.52207305  0.85367810     0.31280
Zr265      Zr  0.41372917  0.51860085  0.75508839     2.17510
O266        O  0.39713725  0.52416491  0.80398572    -0.51080
O267        O  0.45776010  0.53607235  0.75869622    -0.74280
O268        O  0.43835006  0.50087172  0.78994267    -0.81070
O269        O  0.36867876  0.55623951  0.72954919    -0.82810
O270        O  0.44479211  0.47383535  0.77095881    -0.78440
O271        O  0.39668654  0.54695443  0.76673561    -0.90070
O272        O  0.48010599  0.53782591  0.71539463    -0.76040
O273        O  0.44921982  0.50480884  0.72637810    -0.85530
O274        O  0.41366913  0.53471380  0.71138276    -0.85220
O275        O  0.39580715  0.48921043  0.75117880    -0.71970
O276        O  0.36473488  0.51733025  0.73778264    -0.84110
Zr277      Zr  0.38247871  0.49047104  0.65915515     2.26420
Zr278      Zr  0.43091066  0.47573586  0.72046527     2.06270
Zr279      Zr  0.36509361  0.53317675  0.69327931     2.10050
Zr280      Zr  0.44881950  0.52094179  0.68252079     1.78760
O281        O  0.31528738  0.53901607  0.70680866    -0.92910
O282        O  0.49696586  0.50907710  0.67516644    -0.40720
O283        O  0.40038700  0.51973095  0.66313535    -0.77350
O284        O  0.43178501  0.49142709  0.67581368    -0.96040
O285        O  0.38272528  0.47431941  0.70250816    -0.89340
O286        O  0.34745929  0.50397889  0.68848202    -0.92190
C287        C  0.47816137  0.54161077  0.74227863     1.01570
C288        C  0.38121334  0.55833411  0.75403269     1.14500
C289        C  0.44567555  0.48484021  0.79165346     1.05280
O290        O  0.48184205  0.47341080  0.70819401    -0.94340
O291        O  0.42127886  0.45162579  0.68772493    -0.90080
O292        O  0.40089397  0.46299825  0.64749191    -0.83230
C293        C  0.41095897  0.45043803  0.66221609     1.11920
O294        O  0.33074810  0.49362624  0.78061983    -0.96310
Zr295      Zr  0.34793853  0.48769536  0.73208620     1.88940
O296        O  0.34428293  0.46799889  0.65772349    -0.72960
O297        O  0.43646237  0.44572734  0.73732842    -0.52230
O298        O  0.35003737  0.46072882  0.75997650    -0.96900
O299        O  0.29671502  0.49497198  0.73202602    -0.54120
O300        O  0.32514984  0.46505950  0.70240358    -0.73480
C301        C  0.32737191  0.46040971  0.67594516     0.98860
O302        O  0.39830815  0.48997555  0.60914718    -0.62300
O303        O  0.36946612  0.56067183  0.66721457    -0.57100
O304        O  0.35002175  0.50484274  0.62685428    -0.93790
O305        O  0.34115853  0.53172801  0.64559418    -0.92210
O306        O  0.45107837  0.55040252  0.66271902    -0.92570
O307        O  0.46270357  0.52061054  0.63204090    -0.91350
C308        C  0.33843694  0.51992999  0.62592797     1.17710
H309        H  0.41961125  0.54668905  0.71432125     0.33650
H310        H  0.44420838  0.48551137  0.66232915     0.44500
H311        H  0.32856960  0.50363809  0.67972834     0.38030
H312        H  0.39457869  0.48367649  0.76977915     0.34510
H313        H  0.50886969  0.51924452  0.66923844     0.26300
H314        H  0.45617249  0.44500517  0.74548007     0.32230
H315        H  0.33033986  0.45570035  0.75876945     0.38140
H316        H  0.47195894  0.55312864  0.66143522     0.32600
H317        H  0.35366507  0.56802280  0.67477687     0.31480
H318        H  0.30756712  0.54620198  0.69087575     0.33160
H319        H  0.28693909  0.48433185  0.73937807     0.32130
H320        H  0.45468316  0.50952879  0.62447574     0.36130
H321        H  0.40139278  0.50240340  0.60397050     0.28860
H322        H  0.41466905  0.52701764  0.81526465     0.33090
H323        H  0.31652431  0.48430669  0.78504235     0.35940
H324        H  0.38735394  0.56612575  0.67473335     0.28550
H325        H  0.41803420  0.48505069  0.60957220     0.41430
H326        H  0.49212285  0.47581937  0.72642903     0.31480
H327        H  0.50395335  0.50621771  0.69471494     0.39100
H328        H  0.29105841  0.49550798  0.71153962     0.30950
H329        H  0.42327596  0.44450616  0.75397160     0.31010
H330        H  0.39047434  0.51271436  0.81147005     0.31280
Zr331      Zr  0.22641775  0.51118978  0.41955936     2.17510
O332        O  0.24254029  0.51763177  0.37071428    -0.51080
O333        O  0.18233633  0.52836045  0.41693924    -0.74280
O334        O  0.20308782  0.49315935  0.38393898    -0.81070
O335        O  0.27111300  0.54874337  0.44415086    -0.82810
O336        O  0.19728076  0.46578148  0.40213330    -0.78440
O337        O  0.24276479  0.53968708  0.40707837    -0.90070
O338        O  0.16136534  0.53058443  0.46086061    -0.76040
O339        O  0.19083963  0.49719145  0.44823120    -0.85530
O340        O  0.22602938  0.52717858  0.46330171    -0.85220
O341        O  0.24522136  0.48214099  0.42400222    -0.71970
O342        O  0.27547313  0.51034056  0.43694422    -0.84110
Zr343      Zr  0.26008990  0.48189989  0.51581228     2.26420
Zr344      Zr  0.20902686  0.46819155  0.45332389     2.06270
Zr345      Zr  0.27433886  0.52601709  0.48131889     2.10050
Zr346      Zr  0.19197725  0.51263970  0.49272662     1.78760
O347        O  0.32508264  0.53180063  0.47131723    -0.92910
O348        O  0.14371328  0.50037480  0.49874627    -0.40720
O349        O  0.24060774  0.51093988  0.51126122    -0.77350
O350        O  0.21023968  0.48349705  0.49901669    -0.96040
O351        O  0.25799423  0.46693122  0.47126995    -0.89340
O352        O  0.29369296  0.49720718  0.48680581    -0.92190
C353        C  0.16280968  0.53428480  0.43387384     1.01570
C354        C  0.25867882  0.55094039  0.41962042     1.14500
C355        C  0.19672523  0.47696299  0.38151660     1.05280
O356        O  0.15653007  0.46652309  0.45566773    -0.94340
O357        O  0.20261057  0.44799819  0.49281557    -0.90080
O358        O  0.24830274  0.45280874  0.50103049    -0.83230
C359        C  0.22459329  0.44609272  0.50878564     1.11920
O360        O  0.30911126  0.48678411  0.39400991    -0.96310
Zr361      Zr  0.29342703  0.48098972  0.44315337     1.88940
O362        O  0.30251953  0.46227424  0.51869039    -0.72960
O363        O  0.21270015  0.43777148  0.43855481    -0.52230
O364        O  0.29319579  0.45363257  0.41644429    -0.96900
O365        O  0.34372118  0.49056097  0.44194537    -0.54120
O366        O  0.31949102  0.45931933  0.47312672    -0.73480
C367        C  0.31937889  0.45502268  0.49997922     0.98860
O368        O  0.24169069  0.47397241  0.56323027    -0.62300
O369        O  0.26921660  0.55415589  0.50511317    -0.57100
O370        O  0.28690962  0.49951584  0.55030981    -0.93790
O371        O  0.29195094  0.52678059  0.53104843    -0.92210
O372        O  0.19119704  0.54132163  0.51530658    -0.92570
O373        O  0.17686627  0.51100490  0.54279985    -0.91350
C374        C  0.29489491  0.51560815  0.55154442     1.17710
H375        H  0.21995204  0.53911320  0.46046708     0.33650
H376        H  0.19767742  0.47784957  0.51278277     0.44500
H377        H  0.31254133  0.49744086  0.49567147     0.38030
H378        H  0.24681651  0.47672244  0.40538608     0.34510
H379        H  0.13167478  0.51037311  0.50481469     0.26300
H380        H  0.19373073  0.43493390  0.42987842     0.32230
H381        H  0.31341182  0.44949896  0.41710994     0.38140
H382        H  0.17056406  0.54465087  0.51554846     0.32600
H383        H  0.28500447  0.56149546  0.49722283     0.31480
H384        H  0.33246641  0.53749197  0.48895274     0.33160
H385        H  0.35453828  0.48023846  0.43511950     0.32130
H386        H  0.19257540  0.50456783  0.55255509     0.36130
H387        H  0.24340824  0.48471249  0.57493249     0.28860
H388        H  0.22485769  0.52003933  0.35942838     0.33090
H389        H  0.32447086  0.47818106  0.38994441     0.35940
H390        H  0.25133032  0.55922202  0.49702845     0.28550
H391        H  0.22062820  0.47248920  0.56051017     0.41430
H392        H  0.14975386  0.47105845  0.43691321     0.31480
H393        H  0.13709024  0.49778272  0.47897822     0.39100
H394        H  0.34959133  0.49180108  0.46228552     0.30950
H395        H  0.22640791  0.43786545  0.42222873     0.31010
H396        H  0.25004615  0.50647598  0.36305233     0.31280
Zr397      Zr  0.26434291  0.38942616  0.61763014     2.17510
O398        O  0.30449774  0.39040147  0.58394721    -0.51080
O399        O  0.28435667  0.41206381  0.64872260    -0.74280
O400        O  0.26386025  0.41342894  0.58356571    -0.81070
O401        O  0.27865122  0.34162178  0.62481038    -0.82810
O402        O  0.22182184  0.42621557  0.59421620    -0.78440
O403        O  0.30214742  0.36761227  0.62406202    -0.90070
O404        O  0.25051118  0.41623274  0.68332781    -0.76040
O405        O  0.22487021  0.40623975  0.63451596    -0.85530
O406        O  0.25158414  0.37640765  0.66297052    -0.85220
O407        O  0.22796124  0.38690838  0.58074661    -0.71970
O408        O  0.24768223  0.36036421  0.60960969    -0.84110
Zr409      Zr  0.16030952  0.36130306  0.63269320     2.26420
Zr410      Zr  0.18772301  0.40288443  0.59925267     2.06270
Zr411      Zr  0.23522013  0.34672920  0.65390413     2.10050
Zr412      Zr  0.21223879  0.39368226  0.67911851     1.78760
O413        O  0.25389145  0.31714503  0.65869009    -0.92910
O414        O  0.18579829  0.42038813  0.68943885    -0.40720
O415        O  0.19586943  0.36402506  0.67038878    -0.77350
O416        O  0.17350079  0.39091573  0.64467248    -0.96040
O417        O  0.17430703  0.37383368  0.58828533    -0.89340
O418        O  0.19990392  0.34409214  0.61672527    -0.92190
C419        C  0.27427188  0.42040366  0.67044840     1.01570
C420        C  0.30014466  0.35136385  0.61746703     1.14500
C421        C  0.24442029  0.42484091  0.57891916     1.05280
O422        O  0.16649096  0.43182132  0.59501576    -0.94340
O423        O  0.13622578  0.40521579  0.60296795    -0.90080
O424        O  0.12083573  0.37751541  0.61220058    -0.83230
C425        C  0.11684001  0.39336815  0.60446012     1.11920
O426        O  0.26031650  0.35413159  0.54710816    -0.96310
Zr427      Zr  0.21430602  0.35735807  0.57209431     1.88940
O428        O  0.14462854  0.34075045  0.59524607    -0.72960
O429        O  0.17866916  0.40081119  0.54768892    -0.52230
O430        O  0.21197304  0.36769886  0.52259365    -0.96900
O431        O  0.21949808  0.32634355  0.56105156    -0.54120
O432        O  0.16589407  0.35248620  0.55655724    -0.73480
C433        C  0.14970745  0.34104084  0.56811284     0.98860
O434        O  0.11885651  0.36127777  0.66506384    -0.62300
O435        O  0.25784764  0.34828075  0.70113655    -0.57100
O436        O  0.15332202  0.33412000  0.65741982    -0.93790
O437        O  0.19793894  0.32516391  0.67118590    -0.92210
O438        O  0.23653578  0.38536837  0.72345863    -0.92570
O439        O  0.17949902  0.39172051  0.71992012    -0.91350
C440        C  0.17011814  0.32317275  0.66964359     1.17710
H441        H  0.26777982  0.37698050  0.67601427     0.33650
H442        H  0.15685626  0.39697020  0.65211689     0.44500
H443        H  0.19452900  0.33199132  0.61418733     0.38030
H444        H  0.23455306  0.39147536  0.56254457     0.34510
H445        H  0.19776866  0.42665088  0.70376606     0.26300
H446        H  0.16505035  0.41040298  0.54340627     0.32230
H447        H  0.20649201  0.35726812  0.51124488     0.38140
H448        H  0.24077785  0.39657043  0.73323424     0.32600
H449        H  0.25075980  0.33776632  0.71141924     0.31480
H450        H  0.27239874  0.31836225  0.66915601     0.33160
H451        H  0.21737208  0.32564043  0.53991507     0.32130
H452        H  0.16202529  0.38591278  0.71214642     0.36130
H453        H  0.12700772  0.35881374  0.68431742     0.28860
H454        H  0.31292161  0.40230976  0.58486523     0.33090
H455        H  0.25659928  0.34629764  0.53060760     0.35940
H456        H  0.27855698  0.34596925  0.69757329     0.28550
H457        H  0.11277868  0.37364050  0.66630311     0.41430
H458        H  0.16697642  0.43658661  0.61478227     0.31480
H459        H  0.18760771  0.42746363  0.67168555     0.39100
H460        H  0.20189262  0.32055159  0.56851733     0.30950
H461        H  0.19679522  0.40419226  0.53790237     0.31010
H462        H  0.29597682  0.38936456  0.56449684     0.31280
Zr463      Zr  0.13435196  0.64086838  0.80734970     2.17510
O464        O  0.17761997  0.65271417  0.82954518    -0.51080
O465        O  0.15026471  0.66319311  0.77312054    -0.74280
O466        O  0.17321413  0.61968710  0.80022417    -0.81070
O467        O  0.09704764  0.67670911  0.83366914    -0.82810
O468        O  0.15414352  0.59235340  0.79847642    -0.78440
O469        O  0.13315205  0.65993545  0.84902920    -0.90070
O470        O  0.11996108  0.66313077  0.73474328    -0.76040
O471        O  0.12101068  0.62556508  0.76439924    -0.85530
O472        O  0.09522413  0.65709391  0.78740859    -0.85220
O473        O  0.11899756  0.61224871  0.82296850    -0.71970
O474        O  0.09760392  0.64065320  0.84366435    -0.84110
Zr475      Zr  0.03003834  0.61301542  0.79673550     2.26420
Zr476      Zr  0.10534071  0.59680581  0.77935222     2.06270
Zr477      Zr  0.05875451  0.65645911  0.82311555     2.10050
Zr478      Zr  0.08163664  0.64195086  0.74531490     1.78760
O479        O  0.04649420  0.65970829  0.87373325    -0.92910
O480        O  0.10282861  0.63164678  0.70060698    -0.40720
O481        O  0.04381000  0.64165574  0.78043689    -0.77350
O482        O  0.06613695  0.61313816  0.75940944    -0.96040
O483        O  0.06917185  0.59673357  0.81611261    -0.89340
O484        O  0.04382405  0.62846879  0.83898795    -0.92190
C485        C  0.14170538  0.66919989  0.74876188     1.01570
C486        C  0.11655975  0.67310824  0.85195343     1.14500
C487        C  0.17388364  0.60328893  0.80603849     1.05280
O488        O  0.12739019  0.59538604  0.73194098    -0.94340
O489        O  0.06837102  0.57564200  0.76064626    -0.90080
O490        O  0.02370986  0.58567498  0.77217429    -0.83230
C491        C  0.04041600  0.57431593  0.76087262     1.11920
O492        O  0.12412283  0.61326824  0.89108525    -0.96310
Zr493      Zr  0.08294066  0.61232322  0.85831658     1.88940
O494        O  0.01779308  0.59111350  0.83333707    -0.72960
O495        O  0.11634236  0.56582450  0.78427718    -0.52230
O496        O  0.09396454  0.58149603  0.86549229    -0.96900
O497        O  0.07635079  0.62250381  0.90745259    -0.54120
O498        O  0.03628834  0.60308122  0.87311472    -0.73480
C499        C  0.02313905  0.59081338  0.86037673     0.98860
O500        O  0.48698845  0.61146056  0.76634805    -0.62300
O501        O  0.04066197  0.68591281  0.81512842    -0.57100
O502        O  0.49135199  0.63146561  0.81396178    -0.93790
O503        O  0.50809534  0.65945345  0.81633767    -0.92210
O504        O  0.05551102  0.66866216  0.73412351    -0.92570
O505        O  0.04593792  0.63788371  0.70747151    -0.91350
C506        C  0.48819619  0.64796683  0.81749737     1.17710
H507        H  0.09923526  0.66922961  0.78337053     0.33650
H508        H  0.05875758  0.60736321  0.74248287     0.44500
H509        H  0.02814301  0.63002250  0.85239565     0.38030
H510        H  0.13305512  0.60693067  0.83534733     0.34510
H511        H  0.10235877  0.64190527  0.68761101     0.26300
H512        H  0.13443780  0.56404918  0.77335711     0.32230
H513        H  0.09023134  0.57928397  0.88612204     0.38140
H514        H  0.06561100  0.67365162  0.71722603     0.32600
H515        H  0.04271067  0.69192871  0.83382774     0.31480
H516        H  0.02720226  0.66522510  0.87369355     0.33160
H517        H  0.07102587  0.61193195  0.91859553     0.32130
H518        H  0.02813640  0.63430213  0.71773950     0.36130
H519        H  0.48074334  0.62369025  0.76342916     0.28860
H520        H  0.19144277  0.65428065  0.81355034     0.33090
H521        H  0.12739412  0.60108417  0.89740763     0.35940
H522        H  0.05510528  0.69158971  0.80246029     0.28550
H523        H  0.99401319  0.60795793  0.74713165     0.41430
H524        H  0.14838609  0.59643052  0.73560872     0.31480
H525        H  0.12356303  0.63004985  0.70501152     0.39100
H526        H  0.05847925  0.62954175  0.90689807     0.30950
H527        H  0.12177649  0.56420695  0.80468914     0.31010
H528        H  0.18518100  0.64313558  0.84167038     0.31280
Zr529      Zr  0.13008991  0.38671702  0.05584238     2.17510
O530        O  0.09049408  0.38443381  0.09024207    -0.51080
O531        O  0.11209784  0.41036967  0.02503723    -0.74280
O532        O  0.12690142  0.41086404  0.08940365    -0.81070
O533        O  0.11317813  0.34028028  0.04764061    -0.82810
O534        O  0.17270044  0.41578827  0.10452236    -0.78440
O535        O  0.09123617  0.36648823  0.04477952    -0.90070
O536        O  0.14539097  0.41402405  0.98959430    -0.76040
O537        O  0.16908649  0.40413947  0.03908771    -0.85530
O538        O  0.14323595  0.37409529  0.01045682    -0.85220
O539        O  0.16620069  0.38339645  0.09249598    -0.71970
O540        O  0.14550641  0.35729815  0.06400703    -0.84110
Zr541      Zr  0.23423004  0.35949341  0.03997430     2.26420
Zr542      Zr  0.20567448  0.40063064  0.07433687     2.06270
Zr543      Zr  0.15845725  0.34429125  0.01946937     2.10050
Zr544      Zr  0.18278086  0.39159686  0.99450615     1.78760
O545        O  0.13800474  0.31518367  0.01289479    -0.92910
O546        O  0.20889372  0.41849961  0.98336886    -0.40720
O547        O  0.19800258  0.36185049  0.00296140    -0.77350
O548        O  0.22107021  0.38922092  0.02908090    -0.96040
O549        O  0.21930211  0.37145827  0.08457265    -0.89340
O550        O  0.19482368  0.34146956  0.05573732    -0.92190
C551        C  0.12220433  0.41849703  0.00289260     1.01570
C552        C  0.09165326  0.35049566  0.05288421     1.14500
C553        C  0.14544858  0.41783643  0.10617994     1.05280
O554        O  0.22439015  0.42581728  0.04819625    -0.94340
O555        O  0.25099969  0.39133323  0.09253802    -0.90080
O556        O  0.27244759  0.37904935  0.05456538    -0.83230
C557        C  0.27256185  0.38921172  0.07623878     1.11920
O558        O  0.13559509  0.35210055  0.12805798    -0.96310
Zr559      Zr  0.18019564  0.35396733  0.10041985     1.88940
O560        O  0.25227050  0.34036561  0.07810548    -0.72960
O561        O  0.22979031  0.42000186  0.10857846    -0.52230
O562        O  0.18284334  0.35898339  0.15203527    -0.96900
O563        O  0.17578701  0.32240727  0.10679532    -0.54120
O564        O  0.22983435  0.35320092  0.11453166    -0.73480
C565        C  0.24614977  0.34131549  0.10489460     0.98860
O566        O  0.27478380  0.35789243  0.00643234    -0.62300
O567        O  0.13800047  0.34650424  0.97133953    -0.57100
O568        O  0.24060079  0.33228801  0.01596878    -0.93790
O569        O  0.19592369  0.32255676  0.00329093    -0.92210
O570        O  0.15920779  0.38431159  0.94932005    -0.92570
O571        O  0.21762533  0.38851426  0.95566398    -0.91350
C572        C  0.22386142  0.32096634  0.00455626     1.17710
H573        H  0.12717273  0.37477175  0.99726973     0.33650
H574        H  0.23766591  0.39562308  0.02207468     0.44500
H575        H  0.20057490  0.32945188  0.05821608     0.38030
H576        H  0.15915308  0.38663821  0.11122480     0.34510
H577        H  0.20206448  0.42188867  0.96398720     0.26300
H578        H  0.22088802  0.43166200  0.10629697     0.32230
H579        H  0.18168014  0.34721424  0.16085400     0.38140
H580        H  0.15873627  0.39545746  0.93848702     0.32600
H581        H  0.14493372  0.33595426  0.96122892     0.31480
H582        H  0.11893560  0.31705688  0.00380829     0.33160
H583        H  0.16911665  0.32088214  0.12685859     0.32130
H584        H  0.23542274  0.38434252  0.96521465     0.36130
H585        H  0.26590998  0.35572679  0.98739398     0.28860
H586        H  0.08316239  0.39627755  0.09437955     0.33090
H587        H  0.12281262  0.34439283  0.11661020     0.35940
H588        H  0.11703357  0.34448869  0.97397362     0.28550
H589        H  0.28248235  0.36993368  0.00469893     0.41430
H590        H  0.20979277  0.43504072  0.05125412     0.31480
H591        H  0.20039595  0.42737574  0.99624304     0.39100
H592        H  0.19578924  0.31793341  0.10690673     0.30950
H593        H  0.22365580  0.41592911  0.12786251     0.31010
H594        H  0.09964765  0.38059723  0.10840310     0.31280
Zr595      Zr  0.49651966  0.38879301  0.11377937     2.17510
O596        O  0.03403204  0.38577081  0.07735527    -0.51080
O597        O  0.51915459  0.41034506  0.14581964    -0.74280
O598        O  0.49987998  0.41440265  0.08268288    -0.81070
O599        O  0.00863311  0.34132877  0.11843848    -0.82810
O600        O  0.45437214  0.42422782  0.07438429    -0.78440
O601        O  0.03322392  0.36682559  0.12230980    -0.90070
O602        O  0.48555921  0.41458421  0.18062936    -0.76040
O603        O  0.45877857  0.40659947  0.13149252    -0.85530
O604        O  0.48207049  0.37466334  0.15785449    -0.85220
O605        O  0.46003149  0.38804750  0.07719501    -0.71970
O606        O  0.47807932  0.36021351  0.10361322    -0.84110
Zr607      Zr  0.39064916  0.36288200  0.12595644     2.26420
Zr608      Zr  0.42121779  0.40483391  0.09654299     2.06270
Zr609      Zr  0.46348858  0.34559538  0.14658529     2.10050
Zr610      Zr  0.44488347  0.39318083  0.17503602     1.78760
O611        O  0.48043929  0.31554853  0.14870325    -0.92910
O612        O  0.41997366  0.42038645  0.18566395    -0.40720
O613        O  0.42614576  0.36406402  0.16415489    -0.77350
O614        O  0.40601874  0.39173395  0.14051494    -0.96040
O615        O  0.40576589  0.37641326  0.08278055    -0.89340
O616        O  0.42876242  0.34497138  0.10891361    -0.92190
C617        C  0.50985519  0.41845282  0.16820746     1.01570
C618        C  0.03108013  0.35100618  0.11353249     1.14500
C619        C  0.48156857  0.42442055  0.07030910     1.05280
O620        O  0.40837589  0.43413920  0.11216394    -0.94340
O621        O  0.37005394  0.40828683  0.09655172    -0.90080
O622        O  0.35339447  0.38092390  0.10648286    -0.83230
C623        C  0.35021369  0.39681087  0.09877098     1.11920
O624        O  0.48966151  0.35539283  0.03912505    -0.96310
Zr625      Zr  0.44469163  0.35924132  0.06567024     1.88940
O626        O  0.37493651  0.34264636  0.08744399    -0.72960
O627        O  0.40456885  0.40920790  0.04737381    -0.52230
O628        O  0.44142084  0.37227706  0.01794465    -0.96900
O629        O  0.45104134  0.32853973  0.05297157    -0.54120
O630        O  0.39718859  0.35351973  0.04857839    -0.73480
C631        C  0.38084360  0.34228822  0.06039412     0.98860
O632        O  0.34879866  0.36373053  0.15784382    -0.62300
O633        O  0.48378792  0.34301492  0.19473581    -0.57100
O634        O  0.37864824  0.33562965  0.14832801    -0.93790
O635        O  0.42244078  0.32468988  0.16061385    -0.92210
O636        O  0.46770982  0.38505955  0.22021018    -0.92570
O637        O  0.41103712  0.39083269  0.21490790    -0.91350
C638        C  0.39424769  0.32362273  0.15925453     1.17710
H639        H  0.49810501  0.37434378  0.17110459     0.33650
H640        H  0.38968123  0.39800420  0.14815132     0.44500
H641        H  0.42268601  0.33308125  0.10544271     0.38030
H642        H  0.46700001  0.39284998  0.05930358     0.34510
H643        H  0.42979578  0.42500607  0.20297531     0.26300
H644        H  0.40296389  0.42203533  0.04512429     0.32230
H645        H  0.43485945  0.36265073  0.00530525     0.38140
H646        H  0.47024192  0.39622521  0.23064878     0.32600
H647        H  0.50426695  0.34660677  0.19290816     0.31480
H648        H  0.49866737  0.31604819  0.15979678     0.33160
H649        H  0.44865293  0.32813008  0.03184666     0.32130
H650        H  0.39282401  0.38673247  0.20597846     0.36130
H651        H  0.35647414  0.36078089  0.17710829     0.28860
H652        H  0.04000848  0.39750568  0.07064370     0.33090
H653        H  0.48433774  0.35034269  0.02027938     0.35940
H654        H  0.47453607  0.35237128  0.20605165     0.28550
H655        H  0.34368439  0.37623664  0.15949422     0.41430
H656        H  0.42672305  0.43944215  0.11882563     0.31480
H657        H  0.42588398  0.42845488  0.17007723     0.39100
H658        H  0.43389555  0.32227613  0.06046164     0.30950
H659        H  0.42110508  0.40590165  0.03509530     0.31010
H660        H  0.02406024  0.38054597  0.06062586     0.31280
Zr661      Zr  0.37812823  0.63849647  0.31085455     2.17510
O662        O  0.41532226  0.63813514  0.34790844    -0.51080
O663        O  0.39981059  0.65942940  0.27780412    -0.74280
O664        O  0.41751226  0.61884148  0.29842525    -0.81070
O665        O  0.33336105  0.67729499  0.32850800    -0.82810
O666        O  0.40031546  0.59103718  0.29848232    -0.78440
O667        O  0.37481475  0.66411907  0.34179961    -0.90070
O668        O  0.36995339  0.65972118  0.23894677    -0.76040
O669        O  0.36660865  0.62269626  0.26786261    -0.85530
O670        O  0.33955167  0.65423331  0.28902338    -0.85220
O671        O  0.36340870  0.60962045  0.32504479    -0.71970
O672        O  0.34036033  0.63935541  0.34587880    -0.84110
Zr673      Zr  0.27533361  0.60927261  0.29749631     2.26420
Zr674      Zr  0.35053639  0.59384645  0.28154873     2.06270
Zr675      Zr  0.30081823  0.65335166  0.32291013     2.10050
Zr676      Zr  0.32876038  0.63899334  0.24669706     1.78760
O677        O  0.29084215  0.65603341  0.37410647    -0.92910
O678        O  0.35255527  0.62806255  0.20371784    -0.40720
O679        O  0.28872432  0.63794561  0.28000395    -0.77350
O680        O  0.31207939  0.61007779  0.26059714    -0.96040
O681        O  0.31465532  0.59413194  0.31841867    -0.89340
O682        O  0.28759943  0.62512498  0.33974958    -0.92190
C683        C  0.39239836  0.66527346  0.25295688     1.01570
C684        C  0.35662708  0.67668393  0.34282030     1.14500
C685        C  0.41948557  0.60257801  0.30488919     1.05280
O686        O  0.37086769  0.59181207  0.23345964    -0.94340
O687        O  0.31405809  0.57187909  0.26360383    -0.90080
O688        O  0.26905495  0.58135584  0.27482081    -0.83230
C689        C  0.28611731  0.57008100  0.26388546     1.11920
O690        O  0.36462885  0.61923096  0.39481922    -0.96310
Zr691      Zr  0.32757288  0.61067003  0.36025736     1.88940
O692        O  0.25856145  0.58878952  0.33522686    -0.72960
O693        O  0.36328146  0.56331481  0.28910823    -0.52230
O694        O  0.35299586  0.58456487  0.37625525    -0.96900
O695        O  0.30605257  0.62029678  0.40541403    -0.54120
O696        O  0.29024141  0.59118773  0.37211110    -0.73480
C697        C  0.26789562  0.58467391  0.36046804     0.98860
O698        O  0.23424044  0.60830726  0.26468653    -0.62300
O699        O  0.27568196  0.68128952  0.32160774    -0.57100
O700        O  0.23607865  0.62644989  0.31587697    -0.93790
O701        O  0.25060805  0.65453965  0.31113458    -0.92210
O702        O  0.30423734  0.66590280  0.23339139    -0.92570
O703        O  0.29583840  0.63538407  0.20633338    -0.91350
C704        C  0.23218905  0.64291300  0.31803645     1.17710
H705        H  0.34452919  0.66609378  0.28397411     0.33650
H706        H  0.30511635  0.60417289  0.24361070     0.44500
H707        H  0.27203199  0.62552092  0.35351726     0.38030
H708        H  0.37811918  0.60420728  0.33657682     0.34510
H709        H  0.35298055  0.63816338  0.19038550     0.26300
H710        H  0.38080048  0.56139582  0.27735495     0.32230
H711        H  0.34295843  0.58093078  0.39409301     0.38140
H712        H  0.31666463  0.67125671  0.21843736     0.32600
H713        H  0.28090909  0.68729904  0.33971836     0.31480
H714        H  0.26965379  0.65755059  0.37525672     0.33160
H715        H  0.30839252  0.61029027  0.41872862     0.32130
H716        H  0.27763935  0.63114444  0.21513740     0.36130
H717        H  0.22846948  0.62064407  0.26199746     0.28860
H718        H  0.41498090  0.62605224  0.35545846     0.33090
H719        H  0.36248108  0.61117942  0.41136580     0.35940
H720        H  0.28520898  0.68817105  0.30623091     0.28550
H721        H  0.24252825  0.60503490  0.24584462     0.41430
H722        H  0.39190943  0.59339884  0.23625168     0.31480
H723        H  0.37297473  0.62648064  0.20941051     0.39100
H724        H  0.28499823  0.62087825  0.40194581     0.30950
H725        H  0.36996975  0.56261083  0.30928866     0.31010
H726        H  0.40832499  0.64508498  0.36436945     0.31280
Zr727      Zr  0.01709611  0.63720347  0.36626888     2.17510
O728        O  0.47638622  0.64523203  0.33606365    -0.51080
O729        O  0.99871393  0.65893330  0.39908350    -0.74280
O730        O  0.47696259  0.61756578  0.37789109    -0.81070
O731        O  0.06076758  0.67341499  0.33833811    -0.82810
O732        O  0.49281578  0.58972880  0.37772385    -0.78440
O733        O  0.01964194  0.65865163  0.32820915    -0.90070
O734        O  0.02790190  0.65944049  0.43826902    -0.76040
O735        O  0.02764962  0.62206346  0.40997019    -0.85530
O736        O  0.05586962  0.65333722  0.38727482    -0.85220
O737        O  0.03045673  0.60820637  0.35198448    -0.71970
O738        O  0.05515698  0.63684004  0.33165240    -0.84110
Zr739      Zr  0.11849491  0.60760730  0.38119696     2.26420
Zr740      Zr  0.04193606  0.59296453  0.39642352     2.06270
Zr741      Zr  0.09444864  0.65171185  0.35374532     2.10050
Zr742      Zr  0.06668381  0.63816415  0.43025538     1.78760
O743        O  0.11298596  0.65469464  0.30494754    -0.92910
O744        O  0.04303559  0.62819968  0.47409433    -0.40720
O745        O  0.10620554  0.63659329  0.39708322    -0.77350
O746        O  0.08120239  0.60892174  0.41733400    -0.96040
O747        O  0.07897852  0.59217868  0.36055761    -0.89340
O748        O  0.10729349  0.62337750  0.33832238    -0.92190
C749        C  0.00625076  0.66504187  0.42359899     1.01570
C750        C  0.03771895  0.67104092  0.32385283     1.14500
C751        C  0.47443484  0.60149633  0.37074172     1.05280
O752        O  0.01886456  0.59150621  0.44337353    -0.94340
O753        O  0.07635228  0.57110213  0.41666625    -0.90080
O754        O  0.12194166  0.57998558  0.40562206    -0.83230
C755        C  0.10411896  0.56906951  0.41676462     1.11920
O756        O  0.02722320  0.60978944  0.28430033    -0.96310
Zr757      Zr  0.06765126  0.60814132  0.31783654     1.88940
O758        O  0.13146986  0.58642495  0.34367865    -0.72960
O759        O  0.02944457  0.56229797  0.38943144    -0.52230
O760        O  0.05616296  0.57763607  0.30803300    -0.96900
O761        O  0.07567935  0.61917742  0.26932941    -0.54120
O762        O  0.11365074  0.59828754  0.30325781    -0.73480
C763        C  0.12745859  0.58646451  0.31633004     0.98860
O764        O  0.16023239  0.60525370  0.41306156    -0.62300
O765        O  0.11565492  0.68073244  0.35908199    -0.57100
O766        O  0.15843064  0.62476921  0.36332579    -0.93790
O767        O  0.14324518  0.65234875  0.37049068    -0.92210
O768        O  0.09306930  0.66482014  0.44193693    -0.92570
O769        O  0.09995424  0.63440452  0.47027836    -0.91350
C770        C  0.16190668  0.64134194  0.36223523     1.17710
H771        H  0.05169625  0.66551681  0.39054294     0.33650
H772        H  0.08765517  0.60311718  0.43461227     0.44500
H773        H  0.12336193  0.62451189  0.32524497     0.38030
H774        H  0.01592150  0.60293966  0.34001877     0.34510
H775        H  0.04280598  0.63858979  0.48674403     0.26300
H776        H  0.01137245  0.56042848  0.40040399     0.32230
H777        H  0.05965966  0.57625423  0.28717638     0.38140
H778        H  0.08180193  0.67028221  0.45757991     0.32600
H779        H  0.11410655  0.68624514  0.33987500     0.31480
H780        H  0.13352467  0.65801167  0.30738403     0.33160
H781        H  0.08100271  0.60878552  0.25787160     0.32130
H782        H  0.11786852  0.62996041  0.46133058     0.36130
H783        H  0.16762640  0.61732681  0.41536935     0.28860
H784        H  0.46315496  0.65132234  0.34932435     0.33090
H785        H  0.01556813  0.59911176  0.28772335     0.35940
H786        H  0.10195460  0.68725097  0.37132638     0.28550
H787        H  0.15209939  0.60243034  0.43220507     0.41430
H788        H  0.99830558  0.59415313  0.43957931     0.31480
H789        H  0.02256779  0.62644844  0.46863485     0.39100
H790        H  0.09371288  0.62612468  0.27061555     0.30950
H791        H  0.02372986  0.56134459  0.36898529     0.31010
H792        H  0.46674840  0.63414372  0.33078208     0.31280
Zr793      Zr  0.38981744  0.38534517  0.55742559     2.17510
O794        O  0.35580281  0.38028228  0.59652730    -0.51080
O795        O  0.36750102  0.40784403  0.52761216    -0.74280
O796        O  0.38537728  0.41097310  0.58778984    -0.81070
O797        O  0.37645676  0.33832024  0.54834100    -0.82810
O798        O  0.43135090  0.41840582  0.60023440    -0.78440
O799        O  0.35368219  0.36407796  0.54301586    -0.90070
O800        O  0.40180632  0.41297605  0.49369757    -0.76040
O801        O  0.42839307  0.40338937  0.54148190    -0.85530
O802        O  0.40467992  0.37218143  0.51285442    -0.85220
O803        O  0.42566737  0.38375844  0.59426674    -0.71970
O804        O  0.40696326  0.35643435  0.56615464    -0.84110
Zr805      Zr  0.49582592  0.35940614  0.54602199     2.26420
Zr806      Zr  0.46549636  0.40058957  0.57663476     2.06270
Zr807      Zr  0.42262751  0.34287853  0.52271730     2.10050
Zr808      Zr  0.44222946  0.39105487  0.49737798     1.78760
O809        O  0.40544596  0.31278207  0.52077066    -0.92910
O810        O  0.46792814  0.41820530  0.48722668    -0.40720
O811        O  0.46073948  0.36174823  0.50732285    -0.77350
O812        O  0.48101985  0.38852951  0.53220757    -0.96040
O813        O  0.47968899  0.37183133  0.58945899    -0.89340
O814        O  0.45678856  0.34140276  0.56112319    -0.92190
C815        C  0.37740261  0.41663891  0.50615353     1.01570
C816        C  0.35460688  0.34838282  0.55250018     1.14500
C817        C  0.40399522  0.41965839  0.60236378     1.05280
O818        O  0.47832272  0.43001035  0.56108568    -0.94340
O819        O  0.01681595  0.40351722  0.57928865    -0.90080
O820        O  0.03428006  0.37698758  0.56611409    -0.83230
C821        C  0.03705073  0.39247962  0.57609574     1.11920
O822        O  0.39776613  0.35233879  0.63611537    -0.96310
Zr823      Zr  0.43951422  0.35474448  0.60437073     1.88940
O824        O  0.01416347  0.34034878  0.58538123    -0.72960
O825        O  0.48223380  0.40540992  0.62564764    -0.52230
O826        O  0.44949673  0.36820894  0.65079525    -0.96900
O827        O  0.42259009  0.32504849  0.61385496    -0.54120
O828        O  0.48175111  0.34176179  0.62169273    -0.73480
C829        C  0.00535083  0.33657313  0.61104480     0.98860
O830        O  0.03679730  0.36041506  0.51311008    -0.62300
O831        O  0.40316995  0.34108557  0.47413302    -0.57100
O832        O  0.50612479  0.33199462  0.52339304    -0.93790
O833        O  0.46254510  0.32198470  0.50811589    -0.92210
O834        O  0.41819874  0.38368528  0.45243496    -0.92570
O835        O  0.47476609  0.38920908  0.45642594    -0.91350
C836        C  0.49048136  0.32053779  0.51081739     1.17710
H837        H  0.38890444  0.37216429  0.49929050     0.33650
H838        H  0.99758260  0.39497120  0.52520606     0.44500
H839        H  0.46282940  0.32952232  0.56461087     0.38030
H840        H  0.41837617  0.38809062  0.61229939     0.34510
H841        H  0.45777938  0.42323999  0.47043190     0.26300
H842        H  0.98343636  0.41826670  0.62771964     0.32230
H843        H  0.45464041  0.35842698  0.66375261     0.38140
H844        H  0.41437412  0.39507986  0.44309689     0.32600
H845        H  0.38283558  0.34490253  0.47567353     0.31480
H846        H  0.38896517  0.31294608  0.50722123     0.33160
H847        H  0.43722945  0.31986655  0.62677929     0.32130
H848        H  0.99279183  0.38429689  0.46447802     0.36130
H849        H  0.02848252  0.35773892  0.49400234     0.28860
H850        H  0.35842066  0.38934680  0.61141563     0.33090
H851        H  0.40474006  0.34657022  0.65385659     0.35940
H852        H  0.41307948  0.35046702  0.46325732     0.28550
H853        H  0.04218630  0.37292319  0.51172546     0.41430
H854        H  0.45967705  0.43565937  0.55654758     0.31480
H855        H  0.46279494  0.42601697  0.50333789     0.39100
H856        H  0.42482520  0.31870260  0.59548850     0.30950
H857        H  0.46586832  0.40188400  0.63807232     0.31010
H858        H  0.36311600  0.36961736  0.60594738     0.31280
Zr859      Zr  0.26303398  0.63954482  0.86220501     2.17510
O860        O  0.23122205  0.63375321  0.82150888    -0.51080
O861        O  0.24062444  0.66177258  0.89306068    -0.74280
O862        O  0.22734720  0.61907593  0.88063788    -0.81070
O863        O  0.30135438  0.67060835  0.81627888    -0.82810
O864        O  0.24669022  0.59210521  0.87996133    -0.78440
O865        O  0.25585631  0.66475188  0.83198480    -0.90070
O866        O  0.27285486  0.66549671  0.92952037    -0.76040
O867        O  0.27815980  0.62628972  0.90633836    -0.85530
O868        O  0.30034048  0.65825933  0.87952031    -0.85220
O869        O  0.28144555  0.61106550  0.85038874    -0.71970
O870        O  0.30006806  0.64009894  0.82654051    -0.84110
Zr871      Zr  0.36975525  0.61608421  0.87496197     2.26420
Zr872      Zr  0.29686041  0.59769644  0.89499556     2.06270
Zr873      Zr  0.33791706  0.65769307  0.84518026     2.10050
Zr874      Zr  0.31475975  0.64549038  0.92335730     1.78760
O875        O  0.35612540  0.66726681  0.79857783    -0.92910
O876        O  0.29331485  0.63623624  0.96870067    -0.40720
O877        O  0.35373848  0.64476101  0.88902397    -0.77350
O878        O  0.33391131  0.61668175  0.91271191    -0.96040
O879        O  0.33204841  0.59794594  0.85736097    -0.89340
O880        O  0.35441988  0.62973475  0.83176457    -0.92190
C881        C  0.24925092  0.66954450  0.91614763     1.01570
C882        C  0.27394679  0.67224709  0.81517834     1.14500
C883        C  0.22658798  0.60294581  0.87341009     1.05280
O884        O  0.27935816  0.59598591  0.94423055    -0.94340
O885        O  0.33639222  0.57762818  0.91159413    -0.90080
O886        O  0.38005640  0.58897630  0.89910464    -0.83230
C887        C  0.36441406  0.57699665  0.91049286     1.11920
O888        O  0.27521055  0.60822627  0.78196333    -0.96310
Zr889      Zr  0.31650294  0.61190124  0.81405125     1.88940
O890        O  0.38437274  0.59447574  0.83851526    -0.72960
O891        O  0.28679453  0.56651973  0.89069349    -0.52230
O892        O  0.30933167  0.58068303  0.80641552    -0.96900
O893        O  0.32123795  0.62468642  0.76625667    -0.54120
O894        O  0.36315889  0.60405368  0.79813398    -0.73480
C895        C  0.37919604  0.59339743  0.81140833     0.98860
O896        O  0.41197144  0.61755687  0.90630374    -0.62300
O897        O  0.34364661  0.68730427  0.86347047    -0.57100
O898        O  0.40746575  0.63414969  0.85497920    -0.93790
O899        O  0.38930391  0.66084875  0.84318537    -0.92210
O900        O  0.33819253  0.67354357  0.93199006    -0.92570
O901        O  0.34910797  0.64477936  0.96295055    -0.91350
C902        C  0.40971957  0.64984168  0.84564885     1.17710
H903        H  0.29420147  0.67023090  0.88145723     0.33650
H904        H  0.34200181  0.61181721  0.93009605     0.44500
H905        H  0.36955289  0.63138861  0.81776065     0.38030
H906        H  0.26737205  0.60421194  0.84016020     0.34510
H907        H  0.29169225  0.64710518  0.98009081     0.26300
H908        H  0.26973533  0.56430392  0.90301813     0.32230
H909        H  0.31655318  0.57845987  0.78675352     0.38140
H910        H  0.32601099  0.67930872  0.94662265     0.32600
H911        H  0.35933745  0.69247050  0.85171738     0.31480
H912        H  0.35686025  0.68017819  0.79973989     0.33160
H913        H  0.32990160  0.61538605  0.75431158     0.32130
H914        H  0.36744129  0.64097273  0.95403614     0.36130
H915        H  0.41624481  0.63017516  0.90847168     0.28860
H916        H  0.23479793  0.62146025  0.81638104     0.33090
H917        H  0.28105759  0.59948102  0.76746195     0.35940
H918        H  0.32604710  0.69350199  0.85709165     0.28550
H919        H  0.40482742  0.61405006  0.92553393     0.41430
H920        H  0.25823082  0.59765028  0.94262022     0.31480
H921        H  0.27311532  0.63313630  0.96387657     0.39100
H922        H  0.33672348  0.63356368  0.76824093     0.30950
H923        H  0.27979921  0.56487155  0.87076703     0.31010
H924        H  0.23928164  0.64012311  0.80479184     0.31280
Zr925      Zr  0.00625268  0.73240718  0.26023458     2.17510
O926        O  0.00706147  0.72119707  0.30943249    -0.51080
O927        O  0.46811659  0.70979427  0.26090814    -0.74280
O928        O  0.48326865  0.75111408  0.29527054    -0.81070
O929        O  0.05477245  0.69715540  0.23495650    -0.82810
O930        O  0.46977323  0.77666587  0.27442495    -0.78440
O931        O  0.04731417  0.71504280  0.27235203    -0.90070
O932        O  0.44603084  0.70841647  0.21747292    -0.76040
O933        O  0.47118120  0.74640805  0.23140417    -0.85530
O934        O  0.00633785  0.71624597  0.21648514    -0.85220
O935        O  0.02347148  0.76212320  0.25590120    -0.71970
O936        O  0.05477063  0.73442274  0.24181714    -0.84110
Zr937      Zr  0.03595413  0.76189388  0.16311062     2.26420
Zr938      Zr  0.48864145  0.77581290  0.22530375     2.06270
Zr939      Zr  0.05435116  0.71884720  0.19726561     2.10050
Zr940      Zr  0.47120407  0.73023255  0.18771566     1.78760
O941        O  0.10633161  0.71643808  0.20397217    -0.92910
O942        O  0.42105790  0.73967273  0.18908963    -0.40720
O943        O  0.01881765  0.73245777  0.16767314    -0.77350
O944        O  0.48727037  0.76005541  0.18093505    -0.96040
O945        O  0.03650968  0.77779299  0.20672769    -0.89340
O946        O  0.07147148  0.74804837  0.19185448    -0.92190
C947        C  0.44924507  0.70323528  0.24358314     1.01570
C948        C  0.05242779  0.70003631  0.26182914     1.14500
C949        C  0.47139355  0.76615865  0.29590001     1.05280
O950        O  0.43778605  0.78038093  0.21450776    -0.94340
O951        O  0.49267982  0.79921623  0.18934491    -0.90080
O952        O  0.02189943  0.79120889  0.15243181    -0.83230
C953        C  0.50567507  0.80207730  0.16527021     1.11920
O954        O  0.08589524  0.76160500  0.28621652    -0.96310
Zr955      Zr  0.07136322  0.76386530  0.23596799     1.88940
O956        O  0.08024141  0.77897588  0.15954866    -0.72960
O957        O  0.49282590  0.80493344  0.24608891    -0.52230
O958        O  0.07103153  0.79328332  0.25591157    -0.96900
O959        O  0.12051833  0.75331217  0.24258097    -0.54120
O960        O  0.10163214  0.78097755  0.20338907    -0.73480
C961        C  0.10017297  0.78453848  0.17645789     0.98860
O962        O  0.01689731  0.76590409  0.11457478    -0.62300
O963        O  0.05460585  0.68969978  0.17629814    -0.57100
O964        O  0.06073171  0.74448843  0.12825826    -0.93790
O965        O  0.06586282  0.71704787  0.14636323    -0.92210
O966        O  0.47215844  0.70350241  0.15943800    -0.92570
O967        O  0.45135431  0.73436623  0.13974379    -0.91350
C968        C  0.06732652  0.72836537  0.12607400     1.17710
H969        H  0.00190371  0.70401444  0.21919939     0.33650
H970        H  0.47440199  0.76586562  0.16770254     0.44500
H971        H  0.09019877  0.74815621  0.18272732     0.38030
H972        H  0.02441061  0.76785744  0.27433294     0.34510
H973        H  0.40978074  0.72931288  0.18292715     0.26300
H974        H  0.47308404  0.80803987  0.25237945     0.32230
H975        H  0.09135025  0.79730680  0.25480666     0.38140
H976        H  0.45218505  0.69886935  0.16040583     0.32600
H977        H  0.07154912  0.68380006  0.18485340     0.31480
H978        H  0.11361573  0.71205831  0.18534115     0.33160
H979        H  0.13227150  0.76396330  0.24588415     0.32130
H980        H  0.46796615  0.73834945  0.12801914     0.36130
H981        H  0.01326343  0.75397782  0.10715808     0.28860
H982        H  0.98674888  0.72077386  0.31605176     0.33090
H983        H  0.09999301  0.77117482  0.28937279     0.35940
H984        H  0.03764286  0.68365575  0.18470939     0.28550
H985        H  0.49733427  0.77067932  0.11720789     0.41430
H986        H  0.42730107  0.77394064  0.22977927     0.31480
H987        H  0.41652187  0.74092157  0.20977146     0.39100
H988        H  0.12658369  0.74919539  0.22336813     0.30950
H989        H  0.00394354  0.80342215  0.26404028     0.31010
H990        H  0.01652295  0.73031735  0.32126338     0.31280
Zr991      Zr  0.13627185  0.73746851  0.90791988     2.17510
O992        O  0.13582504  0.72483687  0.85975355    -0.51080
O993        O  0.17495555  0.71517728  0.90685088    -0.74280
O994        O  0.15655804  0.75671149  0.87159929    -0.81070
O995        O  0.09449580  0.70075784  0.93516555    -0.82810
O996        O  0.16889896  0.78265825  0.89195219    -0.78440
O997        O  0.09473672  0.71968715  0.89871150    -0.90070
O998        O  0.19784039  0.71417716  0.94990175    -0.76040
O999        O  0.17143048  0.75261408  0.93555727    -0.85530
O1000       O  0.13850098  0.72143205  0.95188258    -0.85220
O1001       O  0.11706142  0.76670810  0.91270663    -0.71970
O1002       O  0.08805514  0.73834881  0.92764894    -0.84110
Zr1003     Zr  0.10626489  0.76613064  0.00575751     2.26420
Zr1004     Zr  0.15208399  0.78143476  0.94213019     2.06270
Zr1005     Zr  0.09085575  0.72270121  0.97215991     2.10050
Zr1006     Zr  0.17361474  0.73657299  0.97941437     1.78760
O1007       O  0.03863964  0.71997070  0.96780889    -0.92910
O1008       O  0.22299130  0.74728552  0.97432521    -0.40720
O1009       O  0.12620143  0.73747327  0.00043525    -0.77350
O1010       O  0.15489538  0.76575278  0.98670311    -0.96040
O1011       O  0.10446780  0.78199240  0.96204774    -0.89340
O1012       O  0.07109735  0.75126943  0.97805844    -0.92190
C1013       C  0.19402225  0.70866131  0.92401350     1.01570
C1014       C  0.09371219  0.70419086  0.90840960     1.14500
C1015       C  0.16735676  0.77211852  0.87048802     1.05280
O1016       O  0.20303974  0.78635101  0.95238597    -0.94340
O1017       O  0.14762082  0.80510183  0.97755474    -0.90080
O1018       O  0.11940366  0.79563616  0.01444567    -0.83230
C1019       C  0.13446894  0.80726418  0.00170736     1.11920
O1020       O  0.05357224  0.76417580  0.88432987    -0.96310
Zr1021     Zr  0.06945958  0.76732410  0.93402105     1.88940
O1022       O  0.06116094  0.78314864  0.00986383    -0.72960
O1023       O  0.14783893  0.81068459  0.92174236    -0.52230
O1024       O  0.06838509  0.79648427  0.91291735    -0.96900
O1025       O  0.02063907  0.75558809  0.92957547    -0.54120
O1026       O  0.03900206  0.78478509  0.96639839    -0.73480
C1027       C  0.04076427  0.78868126  0.99323384     0.98860
O1028       O  0.12553358  0.77101175  0.05404944    -0.62300
O1029       O  0.08502080  0.69346055  0.99229740    -0.57100
O1030       O  0.08542684  0.74705050  0.04164375    -0.93790
O1031       O  0.08851985  0.71948434  0.02395376    -0.92210
O1032       O  0.17597639  0.71075060  0.00997903    -0.92570
O1033       O  0.19568780  0.74225529  0.02599692    -0.91350
C1034       C  0.08474295  0.73040435  0.04437638     1.17710
H1035       H  0.14363785  0.70931273  0.94957599     0.33650
H1036       H  0.16757581  0.77197334  0.99965522     0.44500
H1037       H  0.05266807  0.75094147  0.98775882     0.38030
H1038       H  0.11525809  0.77239239  0.89426726     0.34510
H1039       H  0.23519033  0.73758609  0.98137744     0.26300
H1040       H  0.16739735  0.81375863  0.91471687     0.32230
H1041       H  0.04790895  0.80008817  0.91397677     0.38140
H1042       H  0.19607133  0.70654688  0.00805556     0.32600
H1043       H  0.06937963  0.68789102  0.98100769     0.31480
H1044       H  0.03186565  0.71786915  0.98770356     0.33160
H1045       H  0.00837089  0.76588322  0.92563173     0.32130
H1046       H  0.17942326  0.74582695  0.03844338     0.36130
H1047       H  0.13155396  0.75936307  0.06107651     0.28860
H1048       H  0.15597100  0.72540728  0.85267620     0.33090
H1049       H  0.03894286  0.77338759  0.88127018     0.35940
H1050       H  0.10276589  0.68710651  0.98683533     0.28550
H1051       H  0.14407663  0.77728713  0.05130365     0.41430
H1052       H  0.21328234  0.78173059  0.93536342     0.31480
H1053       H  0.22655114  0.74760224  0.95335278     0.39100
H1054       H  0.01517565  0.75194416  0.94926157     0.30950
H1055       H  0.13596089  0.80928061  0.90419612     0.31010
H1056       H  0.12496061  0.73314376  0.84755844     0.31280
Zr1057     Zr  0.24059144  0.74229174  0.75591680     2.17510
O1058       O  0.25971275  0.73969823  0.80458076    -0.51080
O1059       O  0.20198264  0.72053155  0.76005070    -0.74280
O1060       O  0.21155702  0.75796762  0.79014348    -0.81070
O1061       O  0.28849387  0.70549858  0.73033596    -0.82810
O1062       O  0.20090309  0.78435148  0.77041482    -0.78440
O1063       O  0.26080440  0.71501434  0.76740265    -0.90070
O1064       O  0.18407795  0.71557304  0.71533260    -0.76040
O1065       O  0.20338118  0.75441942  0.72737994    -0.85530
O1066       O  0.24128676  0.72567871  0.71283125    -0.85220
O1067       O  0.25598284  0.77204816  0.75042879    -0.71970
O1068       O  0.28909214  0.74467242  0.73763939    -0.84110
Zr1069     Zr  0.26802978  0.76968429  0.65793664     2.26420
Zr1070     Zr  0.21889693  0.78393581  0.72047889     2.06270
Zr1071     Zr  0.28890203  0.72820501  0.69393439     2.10050
Zr1072     Zr  0.20467533  0.73796430  0.68395366     1.78760
O1073       O  0.34079408  0.72665447  0.70175561    -0.92910
O1074       O  0.15382319  0.74579299  0.68702555    -0.40720
O1075       O  0.25229806  0.74021007  0.66380857    -0.77350
O1076       O  0.21934297  0.76769689  0.67623614    -0.96040
O1077       O  0.26665569  0.78642831  0.70070367    -0.89340
O1078       O  0.30482028  0.75761523  0.68676229    -0.92190
C1079       C  0.18619400  0.71192959  0.74221480     1.01570
C1080       C  0.27633981  0.70367032  0.75487459     1.14500
C1081       C  0.20062618  0.77325419  0.79126932     1.05280
O1082       O  0.16733454  0.78616079  0.71092942    -0.94340
O1083       O  0.21770102  0.80675406  0.68407812    -0.90080
O1084       O  0.24661672  0.79654126  0.64852510    -0.83230
C1085       C  0.23058640  0.80803038  0.65977881     1.11920
O1086       O  0.32114161  0.77059086  0.77866130    -0.96310
Zr1087     Zr  0.30351644  0.77459082  0.72971159     1.88940
O1088       O  0.30715614  0.79159414  0.65323289    -0.72960
O1089       O  0.22144893  0.81341750  0.74000635    -0.52230
O1090       O  0.30147418  0.80260918  0.75438741    -0.96900
O1091       O  0.35473745  0.76729954  0.73049019    -0.54120
O1092       O  0.32638120  0.79616041  0.69747934    -0.73480
C1093       C  0.32432434  0.79979534  0.67050980     0.98860
O1094       O  0.25062385  0.77148117  0.60834505    -0.62300
O1095       O  0.29075435  0.69916431  0.67254511    -0.57100
O1096       O  0.29429933  0.75248203  0.62341216    -0.93790
O1097       O  0.30020452  0.72555705  0.64314761    -0.92210
O1098       O  0.20481279  0.71111706  0.65594963    -0.92570
O1099       O  0.18346450  0.74174028  0.63646767    -0.91350
C1100       C  0.30141476  0.73636688  0.62213912     1.17710
H1101       H  0.23719088  0.71344395  0.71582890     0.33650
H1102       H  0.20610924  0.77295972  0.66274387     0.44500
H1103       H  0.32328176  0.75818459  0.67715347     0.38030
H1104       H  0.25622830  0.77781913  0.76886440     0.34510
H1105       H  0.14331788  0.73521731  0.68052156     0.26300
H1106       H  0.20164924  0.81600128  0.74675263     0.32230
H1107       H  0.32127754  0.80745863  0.75292068     0.38140
H1108       H  0.18492965  0.70642506  0.65771546     0.32600
H1109       H  0.30735558  0.69325617  0.68172821     0.31480
H1110       H  0.34843721  0.72129404  0.68398426     0.33160
H1111       H  0.36460788  0.77834122  0.73576794     0.32130
H1112       H  0.19978950  0.74546752  0.62413659     0.36130
H1113       H  0.24609321  0.75930347  0.60269817     0.28860
H1114       H  0.24352338  0.73526321  0.81647608     0.33090
H1115       H  0.33545814  0.78003258  0.78187375     0.35940
H1116       H  0.27346208  0.69294134  0.67988100     0.28550
H1117       H  0.23139700  0.77705087  0.60928269     0.41430
H1118       H  0.15795360  0.78031743  0.72750037     0.31480
H1119       H  0.14966034  0.74645811  0.70786041     0.39100
H1120       H  0.36019519  0.76541481  0.71018046     0.30950
H1121       H  0.23312116  0.81236737  0.75774962     0.31010
H1122       H  0.26300626  0.75183909  0.81117933     0.31280
Zr1123     Zr  0.39989011  0.73414907  0.41110973     2.17510
O1124       O  0.40124582  0.72227013  0.36246210    -0.51080
O1125       O  0.43618060  0.71100457  0.41102387    -0.74280
O1126       O  0.42321409  0.75235605  0.37520127    -0.81070
O1127       O  0.35280382  0.69849145  0.43843667    -0.82810
O1128       O  0.44099153  0.77689682  0.39612702    -0.78440
O1129       O  0.35718108  0.71726202  0.40236407    -0.90070
O1130       O  0.45792279  0.70942116  0.45463820    -0.76040
O1131       O  0.43651103  0.74687937  0.44000179    -0.85530
O1132       O  0.39854609  0.71823438  0.45534434    -0.85220
O1133       O  0.38549767  0.76427905  0.41487647    -0.71970
O1134       O  0.35132955  0.73731066  0.42919342    -0.84110
Zr1135     Zr  0.37285377  0.76369397  0.50763256     2.26420
Zr1136     Zr  0.42201723  0.77669331  0.44521335     2.06270
Zr1137     Zr  0.35034815  0.72152456  0.47392690     2.10050
Zr1138     Zr  0.43471755  0.73125133  0.48434331     1.78760
O1139       O  0.29928090  0.71939637  0.46197199    -0.92910
O1140       O  0.48547680  0.73974892  0.48321026    -0.40720
O1141       O  0.38699723  0.73387736  0.50396145    -0.77350
O1142       O  0.42150391  0.76129376  0.49022967    -0.96040
O1143       O  0.37441747  0.77962818  0.46405417    -0.89340
O1144       O  0.33595617  0.75127095  0.47898150    -0.92190
C1145       C  0.45432700  0.70425653  0.42870083     1.01570
C1146       C  0.35555306  0.70165621  0.41168483     1.14500
C1147       C  0.43731876  0.76674183  0.37451260     1.05280
O1148       O  0.47321652  0.77965204  0.45615789    -0.94340
O1149       O  0.42014730  0.80049048  0.47978501    -0.90080
O1150       O  0.39199411  0.79152437  0.51705988    -0.83230
C1151       C  0.40760011  0.80273414  0.50409530     1.11920
O1152       O  0.31880651  0.76200298  0.38705077    -0.96310
Zr1153     Zr  0.33793422  0.76737286  0.43508270     1.88940
O1154       O  0.33529209  0.78579899  0.51106195    -0.72960
O1155       O  0.42030310  0.80582731  0.42400853    -0.52230
O1156       O  0.34133164  0.79434923  0.40734293    -0.96900
O1157       O  0.28606639  0.76162641  0.43599881    -0.54120
O1158       O  0.31812528  0.79032335  0.46595816    -0.73480
C1159       C  0.31988574  0.79424217  0.49279441     0.98860
O1160       O  0.39116201  0.76550601  0.55674689    -0.62300
O1161       O  0.34724275  0.69325700  0.49793886    -0.57100
O1162       O  0.34289226  0.74864613  0.54160867    -0.93790
O1163       O  0.33361020  0.72155830  0.52371260    -0.92210
O1164       O  0.43326360  0.70424908  0.51209842    -0.92570
O1165       O  0.45451933  0.73495183  0.53242819    -0.91350
C1166       C  0.33272833  0.73316172  0.54358021     1.17710
H1167       H  0.40243726  0.70594284  0.45298962     0.33650
H1168       H  0.43471138  0.76681643  0.50350973     0.44500
H1169       H  0.31738770  0.75219832  0.48827054     0.38030
H1170       H  0.38495613  0.77005352  0.39643255     0.34510
H1171       H  0.49600972  0.72921199  0.48965469     0.26300
H1172       H  0.44027252  0.80839322  0.41761931     0.32230
H1173       H  0.32217856  0.79990448  0.40940655     0.38140
H1174       H  0.45329314  0.69978866  0.51156582     0.32600
H1175       H  0.33117453  0.68701116  0.48831281     0.31480
H1176       H  0.29019380  0.71430250  0.47934606     0.33160
H1177       H  0.27717714  0.77266329  0.42935205     0.32130
H1178       H  0.43791812  0.73872288  0.54423448     0.36130
H1179       H  0.39324441  0.75324125  0.56320937     0.28860
H1180       H  0.42173155  0.72203722  0.35637851     0.33090
H1181       H  0.30542826  0.77175287  0.38297537     0.35940
H1182       H  0.36487084  0.68694610  0.49199604     0.28550
H1183       H  0.41130795  0.76974319  0.55489261     0.41430
H1184       H  0.48313382  0.77342355  0.44038665     0.31480
H1185       H  0.49027569  0.74081913  0.46254894     0.39100
H1186       H  0.28077064  0.76089480  0.45656350     0.30950
H1187       H  0.40899994  0.80450659  0.40607300     0.31010
H1188       H  0.39175260  0.73094242  0.34981230     0.31280
Zr1189     Zr  0.39316283  0.86955678  0.60807959     2.17510
O1190       O  0.36177390  0.87458324  0.56687109    -0.51080
O1191       O  0.37070733  0.84710396  0.63862078    -0.74280
O1192       O  0.38744834  0.84368971  0.57847578    -0.81070
O1193       O  0.38007982  0.91619257  0.61740634    -0.82810
O1194       O  0.43307914  0.83654051  0.56489045    -0.78440
O1195       O  0.35650849  0.89044443  0.62149751    -0.90070
O1196       O  0.40461362  0.84226920  0.67305306    -0.76040
O1197       O  0.43100781  0.85138171  0.62448622    -0.85530
O1198       O  0.40776719  0.88230081  0.65306351    -0.85220
O1199       O  0.42923660  0.87137830  0.57142126    -0.71970
O1200       O  0.41111097  0.89849316  0.59954458    -0.84110
Zr1201     Zr  0.49917234  0.89470403  0.62183116     2.26420
Zr1202     Zr  0.46782890  0.85392416  0.58917033     2.06270
Zr1203     Zr  0.42584204  0.91158835  0.64366251     2.10050
Zr1204     Zr  0.44519891  0.86354465  0.66886367     1.78760
O1205       O  0.40923081  0.94169960  0.64588235    -0.92910
O1206       O  0.47002741  0.83616925  0.67855717    -0.40720
O1207       O  0.46361653  0.89286129  0.65989186    -0.77350
O1208       O  0.48367743  0.86551421  0.63405690    -0.96040
O1209       O  0.48361211  0.88263592  0.57773763    -0.89340
O1210       O  0.46093385  0.91313622  0.60622230    -0.92190
C1211       C  0.38034219  0.83862174  0.66056777     1.01570
C1212       C  0.35796064  0.90629518  0.61278398     1.14500
C1213       C  0.40568212  0.83504420  0.56349154     1.05280
O1214       O  0.47884299  0.82400018  0.60306653    -0.94340
O1215       O  0.01884767  0.85043632  0.58796706    -0.90080
O1216       O  0.03675908  0.87701051  0.60103181    -0.83230
C1217       C  0.03920351  0.86146378  0.59124047     1.11920
O1218       O  0.40114831  0.90763173  0.53524315    -0.96310
Zr1219     Zr  0.44493321  0.90042158  0.56192276     1.88940
O1220       O  0.01603865  0.91503212  0.58429296    -0.72960
O1221       O  0.48457853  0.84993963  0.53997730    -0.52230
O1222       O  0.44584863  0.88783942  0.51383288    -0.96900
O1223       O  0.44224171  0.93156853  0.55058140    -0.54120
O1224       O  0.49310400  0.90477834  0.54542060    -0.73480
C1225       C  0.01042717  0.91545078  0.55723601     0.98860
O1226       O  0.04078401  0.89318859  0.65395820    -0.62300
O1227       O  0.40548247  0.91315686  0.69188894    -0.57100
O1228       O  0.50954331  0.92180474  0.64559354    -0.93790
O1229       O  0.46573153  0.93232447  0.65886621    -0.92210
O1230       O  0.42178326  0.87052245  0.71421874    -0.92570
O1231       O  0.47876129  0.86528372  0.70903010    -0.91350
C1232       C  0.49375655  0.93349341  0.65720343     1.17710
H1233       H  0.39183621  0.88220728  0.66644546     0.33650
H1234       H  0.99999934  0.85890396  0.64112757     0.44500
H1235       H  0.46727961  0.92505597  0.60352804     0.38030
H1236       H  0.42188849  0.86705590  0.55338119     0.34510
H1237       H  0.45931377  0.83089465  0.69484117     0.26300
H1238       H  0.98524910  0.83702935  0.53736786     0.32230
H1239       H  0.45499004  0.89692139  0.50163092     0.38140
H1240       H  0.41937483  0.85912528  0.72406286     0.32600
H1241       H  0.38505542  0.90949864  0.68985059     0.31480
H1242       H  0.39234769  0.94144652  0.65892741     0.33160
H1243       H  0.44539100  0.93229475  0.52957224     0.32130
H1244       H  0.99687522  0.86980433  0.70056350     0.36130
H1245       H  0.03302437  0.89596910  0.67323496     0.28860
H1246       H  0.36854831  0.86726033  0.55075797     0.33090
H1247       H  0.40741038  0.91205643  0.51622724     0.35940
H1248       H  0.41483623  0.90362470  0.70277767     0.28550
H1249       H  0.04559022  0.88061789  0.65525377     0.41430
H1250       H  0.46005511  0.81887237  0.60885643     0.31480
H1251       H  0.46522164  0.82862951  0.66196411     0.39100
H1252       H  0.45975738  0.93701131  0.55886860     0.30950
H1253       H  0.46842440  0.85392045  0.52770624     0.31010
H1254       H  0.36665568  0.88654205  0.56048700     0.31280
Zr1255     Zr  0.26529249  0.86758218  0.55104341     2.17510
O1256       O  0.31041285  0.86513002  0.57730744    -0.51080
O1257       O  0.28145848  0.84341860  0.52071244    -0.74280
O1258       O  0.26626375  0.84702254  0.59041513    -0.81070
O1259       O  0.28049885  0.91500366  0.54237679    -0.82810
O1260       O  0.22435286  0.83278735  0.58411057    -0.78440
O1261       O  0.30322022  0.88902725  0.54155087    -0.90070
O1262       O  0.24807001  0.83998017  0.48542887    -0.76040
O1263       O  0.22535714  0.85037635  0.53582479    -0.85530
O1264       O  0.25148874  0.87977338  0.50554123    -0.85220
O1265       O  0.22994301  0.87134599  0.58879265    -0.71970
O1266       O  0.24967672  0.89688214  0.55881694    -0.84110
Zr1267     Zr  0.16123755  0.89494584  0.53741590     2.26420
Zr1268     Zr  0.18968043  0.85444973  0.57229533     2.06270
Zr1269     Zr  0.23633263  0.90959079  0.51417198     2.10050
Zr1270     Zr  0.21118989  0.86245951  0.49110707     1.78760
O1271       O  0.25528617  0.93907859  0.50758715    -0.92910
O1272       O  0.18413859  0.83556949  0.48267396    -0.40720
O1273       O  0.19608835  0.89218885  0.49922841    -0.77350
O1274       O  0.17402003  0.86529302  0.52665076    -0.96040
O1275       O  0.17635417  0.88352097  0.58217860    -0.89340
O1276       O  0.20116791  0.91285652  0.55142702    -0.92190
C1277       C  0.27119391  0.83540570  0.49865051     1.01570
C1278       C  0.30199275  0.90514133  0.54883333     1.14500
C1279       C  0.24715798  0.83602615  0.59832209     1.05280
O1280       O  0.17085554  0.82489668  0.57808788    -0.94340
O1281       O  0.13880381  0.85046298  0.56793980    -0.90080
O1282       O  0.12225349  0.87763853  0.55715661    -0.83230
C1283       C  0.11890281  0.86174541  0.56518258     1.11920
O1284       O  0.26296587  0.90415922  0.62051642    -0.96310
Zr1285     Zr  0.21648391  0.90078632  0.59635995     1.88940
O1286       O  0.14504135  0.91501972  0.57501311    -0.72960
O1287       O  0.17765603  0.85858966  0.62285002    -0.52230
O1288       O  0.21661384  0.89265601  0.64701474    -0.96900
O1289       O  0.21968502  0.93220749  0.60496453    -0.54120
O1290       O  0.16789168  0.90345510  0.61274687    -0.73480
C1291       C  0.15078302  0.91460271  0.60197701     0.98860
O1292       O  0.11918871  0.89502490  0.50573601    -0.62300
O1293       O  0.25801012  0.90733150  0.46660018    -0.57100
O1294       O  0.15491302  0.92172643  0.51182436    -0.93790
O1295       O  0.19926393  0.93076002  0.49684635    -0.92210
O1296       O  0.23390018  0.86993803  0.44550986    -0.92570
O1297       O  0.17622400  0.86437869  0.45218574    -0.91350
C1298       C  0.17154814  0.93257423  0.49896864     1.17710
H1299       H  0.26728438  0.87892488  0.49207514     0.33650
H1300       H  0.15728858  0.85900978  0.51974199     0.44500
H1301       H  0.19567221  0.92494309  0.55345425     0.38030
H1302       H  0.23617179  0.86790785  0.60774066     0.34510
H1303       H  0.19472066  0.82954342  0.46711822     0.26300
H1304       H  0.16656936  0.84800640  0.62832039     0.32230
H1305       H  0.21290845  0.90369162  0.65741930     0.38140
H1306       H  0.23565171  0.85867318  0.43523759     0.32600
H1307       H  0.25091912  0.91770653  0.45604586     0.31480
H1308       H  0.27387526  0.93764622  0.49738190     0.33160
H1309       H  0.21963528  0.93336388  0.62615118     0.32130
H1310       H  0.15889672  0.86957865  0.46116460     0.36130
H1311       H  0.12694312  0.89766195  0.48636867     0.28860
H1312       H  0.31617374  0.85267768  0.57708383     0.33090
H1313       H  0.26172699  0.91505188  0.63186014     0.35940
H1314       H  0.27882692  0.90966135  0.46968656     0.28550
H1315       H  0.11300272  0.88265655  0.50430130     0.41430
H1316       H  0.17225135  0.81967065  0.55868810     0.31480
H1317       H  0.18769664  0.82835849  0.49999744     0.39100
H1318       H  0.20083259  0.93705912  0.59904994     0.30950
H1319       H  0.19600867  0.85773614  0.63360035     0.31010
H1320       H  0.30625520  0.86798008  0.59764811     0.31280
Zr1321     Zr  0.22980820  0.23943097  0.25672980     2.17510
O1322       O  0.24598887  0.23408859  0.30587852    -0.51080
O1323       O  0.18584315  0.22142956  0.25940489    -0.74280
O1324       O  0.20566371  0.25768417  0.29126370    -0.81070
O1325       O  0.27174484  0.20093727  0.23205681    -0.82810
O1326       O  0.20615294  0.28540804  0.27372119    -0.78440
O1327       O  0.24588556  0.21103209  0.27004586    -0.90070
O1328       O  0.16370507  0.22024079  0.21593893    -0.76040
O1329       O  0.19586636  0.25498561  0.22843953    -0.85530
O1330       O  0.22717547  0.22345434  0.21307632    -0.85220
O1331       O  0.25171339  0.26793524  0.25199726    -0.71970
O1332       O  0.27858285  0.23893615  0.23848969    -0.84110
Zr1333     Zr  0.26345839  0.26755326  0.15972651     2.26420
Zr1334     Zr  0.21766082  0.28321283  0.22214526     2.06270
Zr1335     Zr  0.27521128  0.22332856  0.19418697     2.10050
Zr1336     Zr  0.19370707  0.23905022  0.18448783     1.78760
O1337       O  0.32645715  0.21800295  0.20165314    -0.92910
O1338       O  0.14512181  0.25104794  0.18210354    -0.40720
O1339       O  0.24181545  0.23908199  0.16482864    -0.77350
O1340       O  0.21417745  0.26789689  0.17727302    -0.96040
O1341       O  0.26604895  0.28334091  0.20335203    -0.89340
O1342       O  0.29689785  0.25164543  0.18788870    -0.92190
C1343       C  0.16582577  0.21575745  0.24255950     1.01570
C1344       C  0.26041243  0.19928013  0.25723609     1.14500
C1345       C  0.20205958  0.27414702  0.29388898     1.05280
O1346       O  0.16745952  0.28542583  0.20700777    -0.94340
O1347       O  0.23343486  0.30750343  0.19144032    -0.90080
O1348       O  0.24248870  0.29505367  0.14844097    -0.83230
C1349       C  0.23928635  0.30835640  0.16447523     1.11920
O1350       O  0.31499729  0.26370732  0.28138196    -0.96310
Zr1351     Zr  0.29956322  0.26761275  0.23169638     1.88940
O1352       O  0.30805654  0.28578643  0.15790727    -0.72960
O1353       O  0.20506781  0.31278302  0.23698538    -0.52230
O1354       O  0.30154087  0.29629096  0.25430576    -0.96900
O1355       O  0.34762894  0.25495226  0.23547807    -0.54120
O1356       O  0.33139446  0.28555885  0.20071468    -0.73480
C1357       C  0.32909632  0.29064207  0.17443024     0.98860
O1358       O  0.25725947  0.27201901  0.10811128    -0.62300
O1359       O  0.27082271  0.19449324  0.17247946    -0.57100
O1360       O  0.28239949  0.24826288  0.12386327    -0.93790
O1361       O  0.28756552  0.22110300  0.14308722    -0.92210
O1362       O  0.19104640  0.21114667  0.15951329    -0.92570
O1363       O  0.17678144  0.24265240  0.13528016    -0.91350
C1364       C  0.28880393  0.23208857  0.12217524     1.17710
H1365       H  0.22042494  0.21162864  0.21603197     0.33650
H1366       H  0.20199652  0.27426818  0.16409448     0.44500
H1367       H  0.31540105  0.25091550  0.17840181     0.38030
H1368       H  0.25393724  0.27328326  0.27062672     0.34510
H1369       H  0.13290658  0.24125041  0.17525581     0.26300
H1370       H  0.18591040  0.31186670  0.24632774     0.32230
H1371       H  0.32210424  0.29983450  0.25334216     0.38140
H1372       H  0.17028326  0.20800624  0.15964842     0.32600
H1373       H  0.28670097  0.18755600  0.18094725     0.31480
H1374       H  0.33449110  0.21670631  0.18206237     0.33160
H1375       H  0.36055557  0.26494730  0.23981486     0.32130
H1376       H  0.19379290  0.24716453  0.12467499     0.36130
H1377       H  0.23653470  0.27463171  0.10523536     0.28860
H1378       H  0.22833885  0.23157483  0.31720214     0.33090
H1379       H  0.33067836  0.27233817  0.28446258     0.35940
H1380       H  0.25295694  0.18940909  0.18074142     0.28550
H1381       H  0.26758264  0.28302438  0.10343401     0.41430
H1382       H  0.15620256  0.28419288  0.22499247     0.31480
H1383       H  0.13932235  0.25264195  0.20240270     0.39100
H1384       H  0.35283817  0.25154496  0.21564724     0.30950
H1385       H  0.21866779  0.31579303  0.25265350     0.31010
H1386       H  0.25309621  0.24550017  0.31304431     0.31280
Zr1387     Zr  0.01467467  0.23470061  0.76722588     2.17510
O1388       O  0.01914059  0.22367001  0.81628198    -0.51080
O1389       O  0.47600304  0.21199627  0.76750819    -0.74280
O1390       O  0.48833446  0.25233431  0.80209928    -0.81070
O1391       O  0.05945733  0.19849328  0.73896725    -0.82810
O1392       O  0.47443653  0.27759274  0.78044264    -0.78440
O1393       O  0.05714908  0.21764118  0.77464195    -0.90070
O1394       O  0.45386324  0.21113110  0.72407795    -0.76040
O1395       O  0.48032953  0.24915787  0.73808657    -0.85530
O1396       O  0.01504392  0.21874662  0.72303571    -0.85220
O1397       O  0.03262164  0.26435283  0.76347841    -0.71970
O1398       O  0.06329355  0.23682677  0.74829861    -0.84110
Zr1399     Zr  0.04626627  0.26437834  0.67017828     2.26420
Zr1400     Zr  0.99831121  0.27851603  0.73279070     2.06270
Zr1401     Zr  0.06336468  0.22128470  0.70343922     2.10050
Zr1402     Zr  0.48016220  0.23299425  0.69445310     1.78760
O1403       O  0.11490684  0.21946955  0.71330348    -0.92910
O1404       O  0.43036651  0.24308392  0.69544834    -0.40720
O1405       O  0.02795275  0.23511480  0.67415597    -0.77350
O1406       O  0.99734640  0.26273601  0.68824286    -0.96040
O1407       O  0.04626092  0.28018294  0.71399431    -0.89340
O1408       O  0.08146931  0.25040254  0.69892482    -0.92190
C1409       C  0.45682525  0.20564912  0.75014386     1.01570
C1410       C  0.05772061  0.20204481  0.76557464     1.14500
C1411       C  0.47468039  0.26689063  0.80193276     1.05280
O1412       O  0.44874958  0.28618427  0.72105571    -0.94340
O1413       O  0.50308459  0.30186574  0.69625597    -0.90080
O1414       O  0.03246898  0.29352374  0.65963114    -0.83230
C1415       C  0.01633971  0.30456252  0.67217673     1.11920
O1416       O  0.09579618  0.26292409  0.79325881    -0.96310
Zr1417     Zr  0.08088529  0.26619014  0.74326104     1.88940
O1418       O  0.09001896  0.28252287  0.66759763    -0.72960
O1419       O  0.00712926  0.30601370  0.75766038    -0.52230
O1420       O  0.08033426  0.29521126  0.76470930    -0.96900
O1421       O  0.13013991  0.25560893  0.74912096    -0.54120
O1422       O  0.11110323  0.28453156  0.71155513    -0.73480
C1423       C  0.10960343  0.28848409  0.68468850     0.98860
O1424       O  0.02718369  0.26854162  0.62168360    -0.62300
O1425       O  0.06966828  0.19271054  0.68132994    -0.57100
O1426       O  0.07117001  0.24727669  0.63448867    -0.93790
O1427       O  0.07347972  0.21956142  0.65184198    -0.92210
O1428       O  0.48092421  0.20617592  0.66640584    -0.92570
O1429       O  0.46070457  0.23737721  0.64639083    -0.91350
C1430       C  0.07619833  0.23094607  0.63168739     1.17710
H1431       H  0.00993631  0.20658511  0.72540451     0.33650
H1432       H  0.48466840  0.26864806  0.67499115     0.44500
H1433       H  0.10022343  0.25060406  0.68985387     0.38030
H1434       H  0.03287173  0.26983746  0.78215159     0.34510
H1435       H  0.41878031  0.23286961  0.68919691     0.26300
H1436       H  0.48772198  0.31046463  0.76250342     0.32230
H1437       H  0.10068038  0.29922537  0.76414209     0.38140
H1438       H  0.46079733  0.20177071  0.66697232     0.32600
H1439       H  0.08545547  0.18706301  0.69222901     0.31480
H1440       H  0.12390802  0.21799419  0.69416939     0.33160
H1441       H  0.14173991  0.26617149  0.75352813     0.32130
H1442       H  0.47740178  0.24144923  0.63486899     0.36130
H1443       H  0.02339068  0.25664157  0.61423010     0.28860
H1444       H  0.99916921  0.22184735  0.82329740     0.33090
H1445       H  0.10957682  0.27258785  0.79696971     0.35940
H1446       H  0.05207448  0.18598872  0.68642257     0.28550
H1447       H  0.00762306  0.27346148  0.62429819     0.41430
H1448       H  0.43681074  0.27744454  0.73139926     0.31480
H1449       H  0.42572629  0.24437843  0.71609918     0.39100
H1450       H  0.13639831  0.25223235  0.72957983     0.30950
H1451       H  0.01574530  0.30267521  0.77634285     0.31010
H1452       H  0.02685590  0.23353419  0.82773543     0.31280
Zr1453     Zr  0.15579550  0.23832665  0.41410999     2.17510
O1454       O  0.13992308  0.23203346  0.36515745    -0.51080
O1455       O  0.20057387  0.22082910  0.41152267    -0.74280
O1456       O  0.17778534  0.25729117  0.37869918    -0.81070
O1457       O  0.11732295  0.19866278  0.44089178    -0.82810
O1458       O  0.17823070  0.28494692  0.39641227    -0.78440
O1459       O  0.14067041  0.20973793  0.40188522    -0.90070
O1460       O  0.22302978  0.22046775  0.45482768    -0.76040
O1461       O  0.18887954  0.25500989  0.44166761    -0.85530
O1462       O  0.15926243  0.22258827  0.45806046    -0.85220
O1463       O  0.13194844  0.26613541  0.41851317    -0.71970
O1464       O  0.10708408  0.23662161  0.43277051    -0.84110
Zr1465     Zr  0.12089722  0.26595802  0.51071502     2.26420
Zr1466     Zr  0.16515720  0.28264511  0.44747515     2.06270
Zr1467     Zr  0.11133076  0.22142742  0.47753283     2.10050
Zr1468     Zr  0.19219397  0.23917583  0.48573177     1.78760
O1469       O  0.05997237  0.21606653  0.47028875    -0.92910
O1470       O  0.23963993  0.25301827  0.48666685    -0.40720
O1471       O  0.14427738  0.23808070  0.50610452    -0.77350
O1472       O  0.16968988  0.26742635  0.49227402    -0.96040
O1473       O  0.11722151  0.28136136  0.46675533    -0.89340
O1474       O  0.08804154  0.24908956  0.48318515    -0.92190
C1475       C  0.22098172  0.21559234  0.42837090     1.01570
C1476       C  0.12810052  0.19742448  0.41545855     1.14500
C1477       C  0.18172342  0.27377415  0.37613351     1.05280
O1478       O  0.21628905  0.28856925  0.45505391    -0.94340
O1479       O  0.15993205  0.30573476  0.48359503    -0.90080
O1480       O  0.13291058  0.29558957  0.52088281    -0.83230
C1481       C  0.14736014  0.30750909  0.50810609     1.11920
O1482       O  0.06833786  0.25940442  0.38982609    -0.96310
Zr1483     Zr  0.08424952  0.26469863  0.43902653     1.88940
O1484       O  0.07540347  0.28275591  0.51326370    -0.72960
O1485       O  0.15950174  0.31229035  0.42911653    -0.52230
O1486       O  0.08001576  0.29279758  0.41467507    -0.96900
O1487       O  0.03656248  0.25111111  0.43677184    -0.54120
O1488       O  0.05271836  0.28262472  0.47003075    -0.73480
C1489       C  0.05461896  0.28750176  0.49645143     0.98860
O1490       O  0.13873614  0.27035008  0.55964557    -0.62300
O1491       O  0.11170657  0.19249624  0.49952045    -0.57100
O1492       O  0.09814139  0.24743149  0.54588372    -0.93790
O1493       O  0.10284087  0.21957653  0.52967749    -0.92210
O1494       O  0.19647810  0.21170126  0.51187331    -0.92570
O1495       O  0.21007832  0.24363535  0.53438675    -0.91350
C1496       C  0.09724351  0.23087050  0.54935724     1.17710
H1497       H  0.16673448  0.21094302  0.45541894     0.33650
H1498       H  0.18150594  0.27425369  0.50520954     0.44500
H1499       H  0.06965899  0.24798825  0.49283150     0.38030
H1500       H  0.12958617  0.27138457  0.39979322     0.34510
H1501       H  0.25299719  0.24360657  0.49259371     0.26300
H1502       H  0.17849038  0.31552315  0.42084231     0.32230
H1503       H  0.05927508  0.29578496  0.41589565     0.38140
H1504       H  0.21733772  0.20894115  0.51138496     0.32600
H1505       H  0.09628795  0.18583017  0.48960536     0.31480
H1506       H  0.05217267  0.21429888  0.48989543     0.33160
H1507       H  0.02332916  0.26072293  0.43148020     0.32130
H1508       H  0.19299568  0.24754606  0.54537235     0.36130
H1509       H  0.14461246  0.25863883  0.56651174     0.28860
H1510       H  0.15770727  0.23011989  0.35379039     0.33090
H1511       H  0.05218359  0.26757914  0.38640926     0.35940
H1512       H  0.12997050  0.18708200  0.49309173     0.28550
H1513       H  0.15730637  0.27668902  0.55755819     0.41430
H1514       H  0.22553458  0.28574041  0.43646283     0.31480
H1515       H  0.24440877  0.25518456  0.46622657     0.39100
H1516       H  0.03148951  0.24833780  0.45693295     0.30950
H1517       H  0.14634115  0.31124524  0.41242989     0.31010
H1518       H  0.13171765  0.24308286  0.35772566     0.31280
Zr1519     Zr  0.38314737  0.23649338  0.90900844     2.17510
O1520       O  0.38054458  0.22485205  0.86025935    -0.51080
O1521       O  0.41973015  0.21315464  0.90915417    -0.74280
O1522       O  0.41091743  0.25375378  0.87465255    -0.81070
O1523       O  0.33592613  0.20096798  0.93537584    -0.82810
O1524       O  0.42696016  0.27832139  0.89705472    -0.78440
O1525       O  0.33978738  0.22022222  0.89965067    -0.90070
O1526       O  0.44161342  0.21200828  0.95273011    -0.76040
O1527       O  0.41797606  0.25036772  0.93869328    -0.85530
O1528       O  0.38191888  0.22037817  0.95303814    -0.85220
O1529       O  0.36701454  0.26639260  0.91256850    -0.71970
O1530       O  0.33451844  0.23887750  0.92707474    -0.84110
Zr1531     Zr  0.35155285  0.26595413  0.00569054     2.26420
Zr1532     Zr  0.40156302  0.27990923  0.94403666     2.06270
Zr1533     Zr  0.33366140  0.22308063  0.97173109     2.10050
Zr1534     Zr  0.41685298  0.23417815  0.98238013     1.78760
O1535       O  0.28236662  0.21962848  0.96165200    -0.92910
O1536       O  0.46722890  0.24346965  0.98164667    -0.40720
O1537       O  0.36882427  0.23657575  0.00188250    -0.77350
O1538       O  0.40080600  0.26401101  0.98861478    -0.96040
O1539       O  0.35322085  0.28188248  0.96188203    -0.89340
O1540       O  0.31668502  0.25229536  0.97598119    -0.92190
C1541       C  0.43827687  0.20655892  0.92672326     1.01570
C1542       C  0.33744673  0.20463712  0.90878698     1.14500
C1543       C  0.42609528  0.26779148  0.87538089     1.05280
O1544       O  0.45086510  0.28634929  0.95893685    -0.94340
O1545       O  0.39557502  0.30392461  0.97913418    -0.90080
O1546       O  0.36560377  0.29536000  0.01534567    -0.83230
C1547       C  0.38161517  0.30663120  0.00279256     1.11920
O1548       O  0.30653546  0.26709123  0.88091524    -0.96310
Zr1549     Zr  0.31850682  0.26839777  0.93190948     1.88940
O1550       O  0.30670867  0.28298023  0.00783525    -0.72960
O1551       O  0.39702274  0.30761354  0.91857991    -0.52230
O1552       O  0.31966858  0.29839180  0.91425340    -0.96900
O1553       O  0.27007430  0.25741190  0.92186025    -0.54120
O1554       O  0.28589419  0.28469196  0.96370027    -0.73480
C1555       C  0.28670473  0.28830952  0.99067550     0.98860
O1556       O  0.36958603  0.27030410  0.05451211    -0.62300
O1557       O  0.33375320  0.19430042  0.99423520    -0.57100
O1558       O  0.32603480  0.24838242  0.04080237    -0.93790
O1559       O  0.31835661  0.22143762  0.02172728    -0.92210
O1560       O  0.41486036  0.20740987  0.01070360    -0.92570
O1561       O  0.43625477  0.23825479  0.03054476    -0.91350
C1562       C  0.31740273  0.23248740  0.04237077     1.17710
H1563       H  0.38621883  0.20813422  0.95071794     0.33650
H1564       H  0.41344478  0.26977381  0.00216415     0.44500
H1565       H  0.29767259  0.25234659  0.98450358     0.38030
H1566       H  0.36738277  0.27199213  0.89395165     0.34510
H1567       H  0.47815827  0.23308206  0.98808891     0.26300
H1568       H  0.41709088  0.31129687  0.91430065     0.32230
H1569       H  0.29920095  0.30205963  0.91374008     0.38140
H1570       H  0.43471648  0.20269037  0.00995615     0.32600
H1571       H  0.31771580  0.18779615  0.98502569     0.31480
H1572       H  0.27484150  0.21266073  0.97798239     0.33160
H1573       H  0.25817262  0.26799631  0.91904339     0.32130
H1574       H  0.41966217  0.24244309  0.04199147     0.36130
H1575       H  0.37351416  0.25843378  0.06201370     0.28860
H1576       H  0.40076035  0.22311318  0.85400279     0.33090
H1577       H  0.29302652  0.27685923  0.87743293     0.35940
H1578       H  0.35152836  0.18859372  0.98716922     0.28550
H1579       H  0.38906532  0.27551134  0.05223564     0.41430
H1580       H  0.46294719  0.27829576  0.94751209     0.31480
H1581       H  0.47209647  0.24465454  0.96101746     0.39100
H1582       H  0.26326919  0.25246365  0.94033697     0.30950
H1583       H  0.38859910  0.30457869  0.89967041     0.31010
H1584       H  0.37318548  0.23451686  0.84816307     0.31280
Zr1585     Zr  0.22978003  0.01694628  0.91226250     2.17510
O1586       O  0.23155496  0.02774770  0.86279436    -0.51080
O1587       O  0.18648989  0.03535151  0.91076211    -0.74280
O1588       O  0.21033564  0.99707521  0.87664097    -0.81070
O1589       O  0.27517801  0.05454428  0.93650999    -0.82810
O1590       O  0.19886137  0.97108199  0.89721035    -0.78440
O1591       O  0.25795542  0.04114248  0.89653581    -0.90070
O1592       O  0.16308704  0.03597907  0.95346115    -0.76040
O1593       O  0.19436675  0.00298439  0.94103462    -0.85530
O1594       O  0.22914231  0.03342564  0.95558230    -0.85220
O1595       O  0.24908774  0.98789777  0.91706133    -0.71970
O1596       O  0.27872220  0.01614250  0.93038560    -0.84110
Zr1597     Zr  0.26126250  0.98928517  0.00913779     2.26420
Zr1598     Zr  0.21347431  0.97415261  0.94716034     2.06270
Zr1599     Zr  0.27751339  0.03234862  0.97448361     2.10050
Zr1600     Zr  0.19455857  0.01903688  0.98499991     1.78760
O1601       O  0.32894872  0.03674957  0.96619378    -0.92910
O1602       O  0.14667000  0.00637185  0.99169131    -0.40720
O1603       O  0.24266145  0.01826340  0.00446176    -0.77350
O1604       O  0.21226126  0.98983593  0.99173691    -0.96040
O1605       O  0.26146353  0.97302650  0.96610072    -0.89340
O1606       O  0.29637734  0.00350173  0.98056058    -0.92190
C1607       C  0.16576130  0.04048840  0.92703990     1.01570
C1608       C  0.26809919  0.05435350  0.90977855     1.14500
C1609       C  0.20085504  0.98137924  0.87560949     1.05280
O1610       O  0.16168813  0.97077208  0.95452615    -0.94340
O1611       O  0.21374879  0.95141702  0.98325970    -0.90080
O1612       O  0.24262929  0.96151449  0.01898770    -0.83230
C1613       C  0.22662685  0.94999191  0.00747065     1.11920
O1614       O  0.31566776  0.99345123  0.88965655    -0.96310
Zr1615     Zr  0.29676434  0.98683633  0.93739175     1.88940
O1616       O  0.30032161  0.96748014  0.01225665    -0.72960
O1617       O  0.21743824  0.94409392  0.93039154    -0.52230
O1618       O  0.29639628  0.96015834  0.90886213    -0.96900
O1619       O  0.34777161  0.99484843  0.93960794    -0.54120
O1620       O  0.31924850  0.96398687  0.96767772    -0.73480
C1621       C  0.31717200  0.95961454  0.99439545     0.98860
O1622       O  0.24421099  0.98764284  0.05877201    -0.62300
O1623       O  0.27553370  0.06129475  0.99606854    -0.57100
O1624       O  0.28939227  0.00547658  0.04311722    -0.93790
O1625       O  0.29144977  0.03329396  0.02587827    -0.92210
O1626       O  0.19253303  0.04833612  0.00524121    -0.92570
O1627       O  0.18008844  0.01833183  0.03531603    -0.91350
C1628       C  0.29510539  0.02172235  0.04576976     1.17710
H1629       H  0.22337452  0.04536332  0.95214234     0.33650
H1630       H  0.19968427  0.98385567  0.00511992     0.44500
H1631       H  0.31493258  0.00361090  0.99001602     0.38030
H1632       H  0.25092710  0.98207526  0.89880350     0.34510
H1633       H  0.13434999  0.01633158  0.99735429     0.26300
H1634       H  0.19812397  0.94097741  0.92278430     0.32230
H1635       H  0.31611802  0.95535899  0.91081664     0.38140
H1636       H  0.17167427  0.05094158  0.00685700     0.32600
H1637       H  0.29177227  0.06787438  0.98732509     0.31480
H1638       H  0.33768862  0.03652444  0.98560812     0.33160
H1639       H  0.35803479  0.98469296  0.93139646     0.32130
H1640       H  0.18734220  0.00703297  0.04268619     0.36130
H1641       H  0.23912176  0.99979590  0.06392665     0.28860
H1642       H  0.21143265  0.02759178  0.85557787     0.33090
H1643       H  0.33016448  0.98432687  0.88552942     0.35940
H1644       H  0.25793004  0.06672809  0.98801398     0.28550
H1645       H  0.22530428  0.98157661  0.05794883     0.41430
H1646       H  0.15280726  0.97520107  0.93659527     0.31480
H1647       H  0.14008317  0.00337354  0.97206581     0.39100
H1648       H  0.35291695  0.99457968  0.96024109     0.30950
H1649       H  0.23020338  0.94461594  0.91333871     0.31010
H1650       H  0.24189808  0.01883796  0.85137532     0.31280
Zr1651     Zr  0.38702978  0.01704709  0.26078836     2.17510
O1652       O  0.37107091  0.02002466  0.31051478    -0.51080
O1653       O  0.42477378  0.03968020  0.26321207    -0.74280
O1654       O  0.41853422  0.00220829  0.29442447    -0.81070
O1655       O  0.33627081  0.05260106  0.23371792    -0.82810
O1656       O  0.43153221  0.97635264  0.27441805    -0.78440
O1657       O  0.36081087  0.04223671  0.27251839    -0.90070
O1658       O  0.44416213  0.04317556  0.21875355    -0.76040
O1659       O  0.42381285  0.00520818  0.23163244    -0.85530
O1660       O  0.38433593  0.03327399  0.21714832    -0.85220
O1661       O  0.37297311  0.98702271  0.25699876    -0.71970
O1662       O  0.33838737  0.01374142  0.24313991    -0.84110
Zr1663     Zr  0.35885140  0.98822040  0.16410662     2.26420
Zr1664     Zr  0.40946973  0.97534993  0.22625030     2.06270
Zr1665     Zr  0.33636573  0.02950581  0.19851876     2.10050
Zr1666     Zr  0.42091942  0.02135350  0.18791456     1.78760
O1667       O  0.28460804  0.02950082  0.20774478    -0.92910
O1668       O  0.47173130  0.01329269  0.18717622    -0.40720
O1669       O  0.37317897  0.01801673  0.16833163    -0.77350
O1670       O  0.40765859  0.99122171  0.18156261    -0.96040
O1671       O  0.36162510  0.97204398  0.20753388    -0.89340
O1672       O  0.32192170  0.99976171  0.19334803    -0.92190
C1673       C  0.44192200  0.04739460  0.24539359     1.01570
C1674       C  0.34687480  0.05393877  0.25895600     1.14500
C1675       C  0.43166168  0.98752717  0.29507121     1.05280
O1676       O  0.46037024  0.97149023  0.21495240    -0.94340
O1677       O  0.41000661  0.95215402  0.19065239    -0.90080
O1678       O  0.37864243  0.96061257  0.15586249    -0.83230
C1679       C  0.39622989  0.94988992  0.16701499     1.11920
O1680       O  0.30797270  0.98768232  0.28632356    -0.96310
Zr1681     Zr  0.32521198  0.98358923  0.23727820     1.88940
O1682       O  0.31991239  0.96665063  0.16090126    -0.72960
O1683       O  0.40493498  0.94681272  0.24916310    -0.52230
O1684       O  0.32959113  0.95582697  0.26263639    -0.96900
O1685       O  0.27352603  0.98948223  0.23929353    -0.54120
O1686       O  0.30357212  0.96143128  0.20615016    -0.73480
C1687       C  0.30451516  0.95804356  0.17912320     0.98860
O1688       O  0.37663055  0.98517507  0.11489348    -0.62300
O1689       O  0.33125446  0.05823191  0.17635793    -0.57100
O1690       O  0.33179232  0.00437919  0.12845683    -0.93790
O1691       O  0.32384369  0.03124944  0.14737594    -0.92210
O1692       O  0.41842956  0.04891208  0.16181058    -0.92570
O1693       O  0.43934919  0.01859210  0.13915008    -0.91350
C1694       C  0.32339352  0.02025680  0.12653907     1.17710
H1695       H  0.38821469  0.04555433  0.21996938     0.33650
H1696       H  0.42084474  0.98599947  0.16801630     0.44500
H1697       H  0.30327683  0.99866734  0.18422131     0.38030
H1698       H  0.37361770  0.98147280  0.27564706     0.34510
H1699       H  0.48197660  0.02407152  0.18111565     0.26300
H1700       H  0.42488621  0.94352009  0.25448343     0.32230
H1701       H  0.31014920  0.95043487  0.26151911     0.38140
H1702       H  0.43848198  0.05345615  0.16181932     0.32600
H1703       H  0.31442155  0.06368791  0.18583957     0.31480
H1704       H  0.27617639  0.03550606  0.19087311     0.33160
H1705       H  0.26458244  0.97812982  0.24448996     0.32130
H1706       H  0.42318227  0.01336335  0.12817966     0.36130
H1707       H  0.38011940  0.99723693  0.10794005     0.28860
H1708       H  0.38777937  0.02487281  0.32118028     0.33090
H1709       H  0.29500988  0.97765210  0.29036455     0.35940
H1710       H  0.34818551  0.06509049  0.18292960     0.28550
H1711       H  0.39629615  0.98026234  0.11661474     0.41430
H1712       H  0.47067600  0.97949174  0.22817589     0.31480
H1713       H  0.47707424  0.01181791  0.20763392     0.39100
H1714       H  0.26753200  0.99144365  0.21913947     0.30950
H1715       H  0.39513361  0.94906240  0.26768923     0.31010
H1716       H  0.36865406  0.00794835  0.31784397     0.31280
Zr1717     Zr  0.15544889  0.01652340  0.75710611     2.17510
O1718       O  0.14129144  0.02304812  0.80648200    -0.51080
O1719       O  0.20009202  0.03416437  0.76110917    -0.74280
O1720       O  0.17635795  0.99710164  0.79210510    -0.81070
O1721       O  0.11676594  0.05589787  0.73028442    -0.82810
O1722       O  0.17900453  0.96970495  0.77357963    -0.78440
O1723       O  0.13790244  0.04446102  0.77013483    -0.90070
O1724       O  0.22389925  0.03485284  0.71857664    -0.76040
O1725       O  0.18931389  0.00032849  0.72997457    -0.85530
O1726       O  0.15971511  0.03262633  0.71359230    -0.85220
O1727       O  0.13230563  0.98842638  0.75178347    -0.71970
O1728       O  0.10709674  0.01782997  0.73765384    -0.84110
Zr1729     Zr  0.12313408  0.98918011  0.65942465     2.26420
Zr1730     Zr  0.16615823  0.97246298  0.72290303     2.06270
Zr1731     Zr  0.11208574  0.03329813  0.69318971     2.10050
Zr1732     Zr  0.19349510  0.01651121  0.68636810     1.78760
O1733       O  0.06043645  0.03760984  0.69973610    -0.92910
O1734       O  0.24079917  0.00273972  0.68575595    -0.40720
O1735       O  0.14597729  0.01726812  0.66503222    -0.77350
O1736       O  0.17158594  0.98806768  0.67860185    -0.96040
O1737       O  0.11862941  0.97343611  0.70291887    -0.89340
O1738       O  0.08942611  0.00542494  0.68663390    -0.92190
C1739       C  0.22109902  0.03950816  0.74506615     1.01570
C1740       C  0.12605626  0.05688501  0.75631911     1.14500
C1741       C  0.18128116  0.98073770  0.79415233     1.05280
O1742       O  0.21725205  0.96651769  0.71572501    -0.94340
O1743       O  0.16144789  0.94937873  0.68684634    -0.90080
O1744       O  0.13504310  0.95962573  0.64933747    -0.83230
C1745       C  0.14908113  0.94766140  0.66224318     1.11920
O1746       O  0.06798974  0.99422341  0.77943821    -0.96310
Zr1747     Zr  0.08503268  0.98952443  0.73048220     1.88940
O1748       O  0.07806509  0.97193070  0.65564985    -0.72960
O1749       O  0.15923968  0.94278618  0.74088831    -0.52230
O1750       O  0.08101808  0.96117574  0.75415935    -0.96900
O1751       O  0.03690002  0.00229384  0.73193769    -0.54120
O1752       O  0.05470765  0.97148287  0.69853243    -0.73480
C1753       C  0.05716449  0.96683396  0.67208227     0.98860
O1754       O  0.14196638  0.98517744  0.61082191    -0.62300
O1755       O  0.11120096  0.06236982  0.67174366    -0.57100
O1756       O  0.10059646  0.00752605  0.62422713    -0.93790
O1757       O  0.10475189  0.03533968  0.64086193    -0.92210
O1758       O  0.19844312  0.04438378  0.66145822    -0.92570
O1759       O  0.21222519  0.01295668  0.63785207    -0.91350
C1760       C  0.09959338  0.02407954  0.62095747     1.17710
H1761       H  0.16692748  0.04432999  0.71671408     0.33650
H1762       H  0.18372512  0.98145058  0.66576117     0.44500
H1763       H  0.07121886  0.00635914  0.67664302     0.38030
H1764       H  0.12968123  0.98296863  0.77031707     0.34510
H1765       H  0.25436376  0.01224648  0.68042361     0.26300
H1766       H  0.17807174  0.93930182  0.74913279     0.32230
H1767       H  0.06040370  0.95787003  0.75237441     0.38140
H1768       H  0.21930021  0.04721020  0.66249672     0.32600
H1769       H  0.09541054  0.06860650  0.68168102     0.31480
H1770       H  0.05291590  0.03955718  0.68007564     0.33160
H1771       H  0.02387028  0.99244359  0.73688926     0.32130
H1772       H  0.19581375  0.00808963  0.62678683     0.36130
H1773       H  0.14802900  0.99696338  0.60432252     0.28860
H1774       H  0.15946808  0.02464660  0.81740955     0.33090
H1775       H  0.05204266  0.98574931  0.78239116     0.35940
H1776       H  0.12915423  0.06815754  0.67839135     0.28550
H1777       H  0.16044621  0.97888154  0.61320713     0.41430
H1778       H  0.22651937  0.96981762  0.73411777     0.31480
H1779       H  0.24518052  0.00029666  0.70619179     0.39100
H1780       H  0.03213103  0.00505034  0.71170507     0.30950
H1781       H  0.14609290  0.94386374  0.75756476     0.31010
H1782       H  0.13250938  0.01218058  0.81416694     0.31280
Zr1783     Zr  0.01652658  0.02019905  0.40411243     2.17510
O1784       O  0.02275586  0.02773087  0.35338242    -0.51080
O1785       O  0.47845612  0.04317288  0.40431980    -0.74280
O1786       O  0.48832978  0.00278376  0.37061412    -0.81070
O1787       O  0.06294517  0.05592999  0.43257883    -0.82810
O1788       O  0.47570121  0.97690903  0.39118414    -0.78440
O1789       O  0.05585462  0.03942875  0.39369763    -0.90070
O1790       O  0.45718739  0.04399343  0.44821476    -0.76040
O1791       O  0.48192167  0.00611930  0.43381216    -0.85530
O1792       O  0.01866322  0.03593080  0.44839433    -0.85220
O1793       O  0.03309949  0.99039418  0.40782074    -0.71970
O1794       O  0.06556957  0.01747782  0.42168610    -0.84110
Zr1795     Zr  0.04805567  0.98991339  0.50073831     2.26420
Zr1796     Zr  0.99860237  0.97656107  0.43889426     2.06270
Zr1797     Zr  0.06728630  0.03262713  0.46677557     2.10050
Zr1798     Zr  0.48349972  0.02216878  0.47755184     1.78760
O1799       O  0.11870534  0.03310615  0.45581292    -0.92910
O1800       O  0.43335522  0.01247248  0.47857199    -0.40720
O1801       O  0.03157230  0.01943645  0.49678240    -0.77350
O1802       O  0.99903209  0.99222525  0.48352141    -0.96040
O1803       O  0.04675954  0.97421292  0.45683952    -0.89340
O1804       O  0.08362872  0.00333911  0.47133727    -0.92190
C1805       C  0.45973332  0.04952708  0.42212397     1.01570
C1806       C  0.05783648  0.05421251  0.40588849     1.14500
C1807       C  0.47563782  0.98790044  0.37020863     1.05280
O1808       O  0.44837538  0.97010126  0.45036950    -0.94340
O1809       O  0.50116542  0.95294763  0.47471302    -0.90080
O1810       O  0.03219504  0.96078260  0.51040107    -0.83230
C1811       C  0.01495415  0.95001535  0.49832950     1.11920
O1812       O  0.09504918  0.98993770  0.37630840    -0.96310
Zr1813     Zr  0.08148717  0.98783546  0.42686215     1.88940
O1814       O  0.09169758  0.97214378  0.50278077    -0.72960
O1815       O  0.00637154  0.94870713  0.41487127    -0.52230
O1816       O  0.07916298  0.95843716  0.40692119    -0.96900
O1817       O  0.13092748  0.99788597  0.41908659    -0.54120
O1818       O  0.11207638  0.97010571  0.45848346    -0.73480
C1819       C  0.11104173  0.96637398  0.48542006     0.98860
O1820       O  0.03034266  0.98533226  0.54969748    -0.62300
O1821       O  0.07822023  0.06089511  0.48839570    -0.57100
O1822       O  0.07335415  0.00717395  0.53625857    -0.93790
O1823       O  0.07695509  0.03471353  0.51831406    -0.92210
O1824       O  0.98611454  0.04924346  0.50480100    -0.92570
O1825       O  0.46570613  0.01846551  0.52641790    -0.91350
C1826       C  0.07905101  0.02348425  0.53872249     1.17710
H1827       H  0.01387546  0.04812835  0.44625689     0.33650
H1828       H  0.48622534  0.98646198  0.49696100     0.44500
H1829       H  0.10253624  0.00296599  0.48006197     0.38030
H1830       H  0.03283889  0.98491052  0.38914938     0.34510
H1831       H  0.42237115  0.02284788  0.48490108     0.26300
H1832       H  0.48679609  0.94439031  0.40995495     0.32230
H1833       H  0.09930843  0.95417089  0.40740536     0.38140
H1834       H  0.46615358  0.05378018  0.50485533     0.32600
H1835       H  0.09365957  0.06611738  0.47637400     0.31480
H1836       H  0.12823565  0.03447158  0.47472859     0.33160
H1837       H  0.14187367  0.98720594  0.41422104     0.32130
H1838       H  0.48201439  0.01312858  0.53696013     0.36130
H1839       H  0.02685325  0.99714852  0.55755625     0.28860
H1840       H  0.00325826  0.02990090  0.34542858     0.33090
H1841       H  0.10822804  0.98002979  0.37270800     0.35940
H1842       H  0.06098958  0.06820017  0.48482117     0.28550
H1843       H  0.01066125  0.98039158  0.54757981     0.41430
H1844       H  0.43714811  0.97866732  0.43903058     0.31480
H1845       H  0.42796180  0.01099527  0.45813144     0.39100
H1846       H  0.13809091  0.00115323  0.43838814     0.30950
H1847       H  0.01538246  0.95172760  0.39620754     0.31010
H1848       H  0.02969833  0.01701380  0.34374632     0.31280
Zr1849     Zr  0.01026180  0.11482426  0.30845971     2.17510
O1850       O  0.48242437  0.11418590  0.35292679    -0.51080
O1851       O  0.98752818  0.09388586  0.27604536    -0.74280
O1852       O  0.47157317  0.13499505  0.29659889    -0.81070
O1853       O  0.04632319  0.09754573  0.35460477    -0.82810
O1854       O  0.49123525  0.16216771  0.29410322    -0.78440
O1855       O  0.00726966  0.08734729  0.33420639    -0.90070
O1856       O  0.01944909  0.09078836  0.23922028    -0.76040
O1857       O  0.02314823  0.12891221  0.26422154    -0.85530
O1858       O  0.04850311  0.09733064  0.28900735    -0.85220
O1859       O  0.02758077  0.14360358  0.32093738    -0.71970
O1860       O  0.04944615  0.11584994  0.34197321    -0.84110
Zr1861     Zr  0.11576351  0.14143782  0.29252462     2.26420
Zr1862     Zr  0.04050131  0.15780406  0.27608936     2.06270
Zr1863     Zr  0.08703550  0.09869263  0.32267818     2.10050
Zr1864     Zr  0.06070988  0.11120111  0.24534422     1.78760
O1865       O  0.10946041  0.08732942  0.36633639    -0.92910
O1866       O  0.03760767  0.12064669  0.20096921    -0.40720
O1867       O  0.10067252  0.11244017  0.27855738    -0.77350
O1868       O  0.07829657  0.14031806  0.25635457    -0.96040
O1869       O  0.07763154  0.15844744  0.31183236    -0.89340
O1870       O  0.10306277  0.12690967  0.33587234    -0.92190
C1871       C  0.99603828  0.08652999  0.25269917     1.01570
C1872       C  0.02767899  0.08542453  0.35213120     1.14500
C1873       C  0.47120905  0.15145483  0.30184476     1.05280
O1874       O  0.02001401  0.15928598  0.22798103    -0.94340
O1875       O  0.07759162  0.17917184  0.25792282    -0.90080
O1876       O  0.12247387  0.16916282  0.26872462    -0.83230
C1877       C  0.10554156  0.18069477  0.25812058     1.11920
O1878       O  0.02405620  0.14549112  0.38853927    -0.96310
Zr1879     Zr  0.06477810  0.14386115  0.35534793     1.88940
O1880       O  0.13063231  0.16291487  0.32927739    -0.72960
O1881       O  0.02889045  0.18868070  0.28116608    -0.52230
O1882       O  0.05689669  0.17487614  0.36388814    -0.96900
O1883       O  0.07111412  0.13099386  0.40286610    -0.54120
O1884       O  0.11178421  0.15199856  0.36991831    -0.73480
C1885       C  0.12659318  0.16333625  0.35663212     0.98860
O1886       O  0.15657663  0.14154804  0.25936428    -0.62300
O1887       O  0.08523638  0.06770243  0.31037390    -0.57100
O1888       O  0.15536223  0.12431372  0.31099169    -0.93790
O1889       O  0.13858166  0.09677435  0.31954945    -0.92210
O1890       O  0.08475295  0.08370415  0.23485486    -0.92570
O1891       O  0.09364910  0.11310592  0.20467649    -0.91350
C1892       C  0.15844653  0.10832330  0.31856318     1.17710
H1893       H  0.04283754  0.08528438  0.28645260     0.33650
H1894       H  0.08528970  0.14563429  0.23882482     0.44500
H1895       H  0.11880922  0.12534239  0.34919454     0.38030
H1896       H  0.01345831  0.14959856  0.33237668     0.34510
H1897       H  0.03619511  0.10993147  0.18914357     0.26300
H1898       H  0.01099391  0.19045847  0.26991108     0.32230
H1899       H  0.06421368  0.17697153  0.38357108     0.38140
H1900       H  0.07232650  0.07795049  0.22033782     0.32600
H1901       H  0.10019488  0.06201331  0.32228369     0.31480
H1902       H  0.12042362  0.07680404  0.36075290     0.33160
H1903       H  0.07990247  0.14037148  0.41465920     0.32130
H1904       H  0.11196850  0.11747264  0.21303380     0.36130
H1905       H  0.16165469  0.12909430  0.25679484     0.28860
H1906       H  0.46550019  0.10651687  0.34971934     0.33090
H1907       H  0.02853482  0.15520134  0.40186083     0.35940
H1908       H  0.06674283  0.06336062  0.31836500     0.28550
H1909       H  0.14829888  0.14493576  0.24055036     0.41430
H1910       H  0.99907016  0.15728872  0.23082971     0.31480
H1911       H  0.01740518  0.12319297  0.20643407     0.39100
H1912       H  0.08671685  0.12232570  0.40036855     0.30950
H1913       H  0.02306474  0.19014463  0.30149222     0.31010
H1914       H  0.47496476  0.12614166  0.35577776     0.31280
Zr1915     Zr  0.38251447  0.13867869  0.81483083     2.17510
O1916       O  0.42200295  0.14359772  0.84806178    -0.51080
O1917       O  0.40425800  0.16134158  0.78397756    -0.74280
O1918       O  0.41742550  0.11739629  0.79720776    -0.81070
O1919       O  0.34543280  0.17466674  0.83738766    -0.82810
O1920       O  0.40008352  0.08994382  0.79765139    -0.78440
O1921       O  0.38121582  0.15880045  0.85524346    -0.90070
O1922       O  0.37500917  0.16271322  0.74484671    -0.76040
O1923       O  0.36890641  0.12405864  0.77124957    -0.85530
O1924       O  0.34477330  0.15607797  0.79470741    -0.85220
O1925       O  0.36579219  0.10954031  0.82734506    -0.71970
O1926       O  0.34440771  0.13816222  0.84977289    -0.84110
Zr1927     Zr  0.27551752  0.11285010  0.79838955     2.26420
Zr1928     Zr  0.35032060  0.09520279  0.78280050     2.06270
Zr1929     Zr  0.30637507  0.15473670  0.82909538     2.10050
Zr1930     Zr  0.33273949  0.14228621  0.75138631     1.78760
O1931       O  0.29817420  0.15754111  0.88061811    -0.92910
O1932       O  0.35642890  0.13195649  0.70795531    -0.40720
O1933       O  0.29247645  0.14157995  0.78460520    -0.77350
O1934       O  0.31353938  0.11337017  0.76259316    -0.96040
O1935       O  0.31396187  0.09573714  0.81871217    -0.89340
O1936       O  0.29063108  0.12636950  0.84293291    -0.92190
C1937       C  0.39748092  0.16786327  0.75934559     1.01570
C1938       C  0.36382054  0.17165191  0.85692249     1.14500
C1939       C  0.41892112  0.10138915  0.80504545     1.05280
O1940       O  0.37007124  0.09135808  0.73478501    -0.94340
O1941       O  0.31194416  0.07451173  0.76393438    -0.90080
O1942       O  0.26751743  0.08502643  0.77502841    -0.83230
C1943       C  0.28385160  0.07331622  0.76409944     1.11920
O1944       O  0.36396889  0.11577495  0.90055726    -0.96310
Zr1945     Zr  0.32937065  0.10954813  0.86231685     1.88940
O1946       O  0.24813736  0.09142550  0.82720471    -0.72960
O1947       O  0.35815781  0.06450387  0.79437048    -0.52230
O1948       O  0.34816548  0.08071562  0.87419181    -0.96900
O1949       O  0.30628550  0.11410453  0.90880391    -0.54120
O1950       O  0.28551456  0.09587736  0.85229444    -0.73480
C1951       C  0.26251898  0.08751282  0.84937728     0.98860
O1952       O  0.23887157  0.11703628  0.76152607    -0.62300
O1953       O  0.28575979  0.18385600  0.82362811    -0.57100
O1954       O  0.23761634  0.13068434  0.81852493    -0.93790
O1955       O  0.25516691  0.15810890  0.82593277    -0.92210
O1956       O  0.30880288  0.16978757  0.74050889    -0.92570
O1957       O  0.30041436  0.14078704  0.71021778    -0.91350
C1958       C  0.23500007  0.14675930  0.82565650     1.17710
H1959       H  0.35000251  0.16799420  0.79023833     0.33650
H1960       H  0.30649537  0.10816204  0.74503142     0.44500
H1961       H  0.27520217  0.12728756  0.85681763     0.38030
H1962       H  0.37994549  0.10331022  0.83844428     0.34510
H1963       H  0.35855433  0.14250258  0.69575746     0.26300
H1964       H  0.37464747  0.06083255  0.78229924     0.32230
H1965       H  0.34086790  0.07817530  0.89375433     0.38140
H1966       H  0.32308828  0.17658155  0.72921961     0.32600
H1967       H  0.27983193  0.18746618  0.84316906     0.31480
H1968       H  0.27703012  0.15895092  0.88258520     0.33160
H1969       H  0.31199816  0.10396529  0.92072902     0.32130
H1970       H  0.28162086  0.13709193  0.71840847     0.36130
H1971       H  0.23765306  0.12986438  0.75903762     0.28860
H1972       H  0.43518629  0.15177085  0.83801366     0.33090
H1973       H  0.36776456  0.10446943  0.91016714     0.35940
H1974       H  0.30204574  0.19170759  0.81863759     0.28550
H1975       H  0.24797183  0.11287682  0.74356295     0.41430
H1976       H  0.39014041  0.09579397  0.73613290     0.31480
H1977       H  0.37638655  0.12916768  0.71398064     0.39100
H1978       H  0.28538795  0.11238162  0.90528693     0.30950
H1979       H  0.36564751  0.06442912  0.81430476     0.31010
H1980       H  0.43202404  0.13230237  0.84916825     0.31280
Zr1981     Zr  0.38247101  0.11701446  0.36186633     2.17510
O1982       O  0.41910782  0.11623954  0.32458071    -0.51080
O1983       O  0.40635337  0.09423616  0.39070938    -0.74280
O1984       O  0.41792558  0.13844088  0.37829601    -0.81070
O1985       O  0.34059447  0.08060998  0.33004213    -0.82810
O1986       O  0.39977348  0.16554916  0.37632033    -0.78440
O1987       O  0.38060597  0.09698926  0.32192695    -0.90070
O1988       O  0.37793430  0.09187851  0.43032194    -0.76040
O1989       O  0.37043997  0.13135545  0.40595524    -0.85530
O1990       O  0.34622482  0.09864754  0.38240030    -0.85220
O1991       O  0.36427870  0.14569273  0.34990612    -0.71970
O1992       O  0.34273183  0.11660951  0.32922572    -0.84110
Zr1993     Zr  0.27701387  0.14175091  0.37990193     2.26420
Zr1994     Zr  0.35090545  0.15995212  0.39477723     2.06270
Zr1995     Zr  0.30578589  0.09953594  0.35082793     2.10050
Zr1996     Zr  0.33550471  0.11227727  0.42636473     1.78760
O1997       O  0.28886708  0.09564192  0.30169345    -0.92910
O1998       O  0.36098039  0.12208570  0.46922358    -0.40720
O1999       O  0.29382645  0.11325061  0.39503707    -0.77350
O2000       O  0.31527417  0.14105966  0.41550291    -0.96040
O2001       O  0.31379946  0.15942109  0.35924743    -0.89340
O2002       O  0.28962747  0.12746657  0.33648687    -0.92190
C2003       C  0.40016974  0.08718288  0.41514156     1.01570
C2004       C  0.36294141  0.08475478  0.31551038     1.14500
C2005       C  0.41905443  0.15428617  0.36955841     1.05280
O2006       O  0.37106935  0.16210058  0.44294282    -0.94340
O2007       O  0.31188467  0.18066480  0.41206956    -0.90080
O2008       O  0.26742760  0.16932357  0.40287385    -0.83230
C2009       C  0.28374616  0.18153304  0.41246689     1.11920
O2010       O  0.36763244  0.14482663  0.28257893    -0.96310
Zr2011     Zr  0.32693511  0.14470944  0.31592109     1.88940
O2012       O  0.26172981  0.16357508  0.34347712    -0.72960
O2013       O  0.36105961  0.19107253  0.38940737    -0.52230
O2014       O  0.33611765  0.17553884  0.30626483    -0.96900
O2015       O  0.31835869  0.13299773  0.26797877    -0.54120
O2016       O  0.28008031  0.15357998  0.30204481    -0.73480
C2017       C  0.26534094  0.16455407  0.31603956     0.98860
O2018       O  0.23668325  0.14061733  0.41357081    -0.62300
O2019       O  0.29152518  0.06998261  0.36440369    -0.57100
O2020       O  0.23801277  0.12411642  0.36105075    -0.93790
O2021       O  0.25445640  0.09642528  0.35451995    -0.92210
O2022       O  0.31178361  0.08460717  0.43748941    -0.92570
O2023       O  0.30519659  0.11334557  0.46905132    -0.91350
C2024       C  0.23481184  0.10802743  0.35416296     1.17710
H2025       H  0.35206304  0.08662598  0.38454361     0.33650
H2026       H  0.30831625  0.14616607  0.43315216     0.44500
H2027       H  0.27378749  0.12604834  0.32321711     0.38030
H2028       H  0.37790068  0.15200605  0.33817535     0.34510
H2029       H  0.36354082  0.11137750  0.48091760     0.26300
H2030       H  0.37895173  0.19326174  0.40050566     0.32230
H2031       H  0.32832855  0.17754808  0.28673271     0.38140
H2032       H  0.32620403  0.07793607  0.44868519     0.32600
H2033       H  0.28965737  0.06363687  0.34596361     0.31480
H2034       H  0.27460170  0.08598966  0.30273660     0.33160
H2035       H  0.31257689  0.14320207  0.25622273     0.32130
H2036       H  0.28624452  0.11744032  0.46192340     0.36130
H2037       H  0.23203830  0.12803973  0.41571248     0.28860
H2038       H  0.43354453  0.12465124  0.33132696     0.33090
H2039       H  0.36538087  0.15544185  0.27061469     0.35940
H2040       H  0.30884196  0.06491818  0.37363316     0.28550
H2041       H  0.24515880  0.14383458  0.43237986     0.41430
H2042       H  0.39203037  0.16018958  0.44029394     0.31480
H2043       H  0.38069755  0.12503425  0.46251985     0.39100
H2044       H  0.30052265  0.12590912  0.26981420     0.30950
H2045       H  0.36663047  0.19267707  0.36902262     0.31010
H2046       H  0.41038728  0.12231154  0.30789241     0.31280
Zr2047     Zr  0.00917565  0.13938723  0.86277784     2.17510
O2048       O  0.47718476  0.13624624  0.82137022    -0.51080
O2049       O  0.98680790  0.16142012  0.89376676    -0.74280
O2050       O  0.47204046  0.11908842  0.87953476    -0.81070
O2051       O  0.04842674  0.17682923  0.84157582    -0.82810
O2052       O  0.48964500  0.09159662  0.87989809    -0.78440
O2053       O  0.00814552  0.16299129  0.82785412    -0.90070
O2054       O  0.01626382  0.16271852  0.93295411    -0.76040
O2055       O  0.02154303  0.12472005  0.90666309    -0.85530
O2056       O  0.04704092  0.15650779  0.88376100    -0.85220
O2057       O  0.02595460  0.11058028  0.85066107    -0.71970
O2058       O  0.04804647  0.13996505  0.82873305    -0.84110
Zr2059     Zr  0.11375210  0.11338189  0.87912131     2.26420
Zr2060     Zr  0.03943064  0.09605181  0.89503518     2.06270
Zr2061     Zr  0.08617074  0.15611986  0.85041826     2.10050
Zr2062     Zr  0.05810101  0.14250730  0.92721302     1.78760
O2063       O  0.09855698  0.15731333  0.79954096    -0.92910
O2064       O  0.03379246  0.13203955  0.97037646    -0.40720
O2065       O  0.09854488  0.14199698  0.89447591    -0.77350
O2066       O  0.07658179  0.11377673  0.91554308    -0.96040
O2067       O  0.07598395  0.09636259  0.85889944    -0.89340
O2068       O  0.10121724  0.12805832  0.83592588    -0.92190
C2069       C  0.99395697  0.16785561  0.91839550     1.01570
C2070       C  0.02801660  0.17434284  0.82377293     1.14500
C2071       C  0.47034041  0.10281691  0.87315936     1.05280
O2072       O  0.01980974  0.09270018  0.94325937    -0.94340
O2073       O  0.07643610  0.07494832  0.91283020    -0.90080
O2074       O  0.12096922  0.08572729  0.90217113    -0.83230
C2075       C  0.10435939  0.07387316  0.91242939     1.11920
O2076       O  0.02246300  0.11073009  0.78214441    -0.96310
Zr2077     Zr  0.06278433  0.11141705  0.81589952     1.88940
O2078       O  0.12801017  0.09172829  0.84254584    -0.72960
O2079       O  0.02942638  0.06534642  0.88512610    -0.52230
O2080       O  0.05352309  0.08051659  0.80720930    -0.96900
O2081       O  0.07019679  0.12198955  0.76699916    -0.54120
O2082       O  0.10956569  0.10257824  0.80172687    -0.73480
C2083       C  0.12391490  0.09116292  0.81520823     0.98860
O2084       O  0.15495031  0.11312195  0.91186475    -0.62300
O2085       O  0.10671246  0.18541080  0.85483849    -0.57100
O2086       O  0.15322841  0.13090184  0.86136644    -0.93790
O2087       O  0.13731456  0.15889622  0.85787040    -0.92210
O2088       O  0.08168905  0.17002201  0.93935283    -0.92570
O2089       O  0.09034570  0.14025584  0.96836301    -0.91350
C2090       C  0.15687663  0.14723858  0.85665047     1.17710
H2091       H  0.04168279  0.16836693  0.88814523     0.33650
H2092       H  0.08368694  0.10836462  0.93291686     0.44500
H2093       H  0.11729765  0.12943342  0.82292083     0.38030
H2094       H  0.01145867  0.10431578  0.83999125     0.34510
H2095       H  0.03219064  0.14248500  0.98279350     0.26300
H2096       H  0.01251261  0.06226362  0.89715317     0.32230
H2097       H  0.05750847  0.07890641  0.78648392     0.38140
H2098       H  0.06883809  0.17548139  0.95373491     0.32600
H2099       H  0.10885498  0.18979329  0.83492813     0.31480
H2100       H  0.11901340  0.16111901  0.79911665     0.33160
H2101       H  0.07482403  0.11142106  0.75567161     0.32130
H2102       H  0.10891589  0.13631563  0.96011995     0.36130
H2103       H  0.16002877  0.12556603  0.91487790     0.28860
H2104       H  0.47350410  0.12358839  0.82013717     0.33090
H2105       H  0.00985489  0.10100117  0.78856856     0.35940
H2106       H  0.09143231  0.19273208  0.86344162     0.28550
H2107       H  0.14693168  0.10942453  0.93065437     0.41430
H2108       H  0.99932615  0.09618865  0.94147529     0.31480
H2109       H  0.01371000  0.12959077  0.96425060     0.39100
H2110       H  0.08856004  0.12863755  0.76767288     0.30950
H2111       H  0.02222724  0.06504456  0.86509238     0.31010
H2112       H  0.48898310  0.13841140  0.80397348     0.31280
C2113       C  0.43688229  0.09734717  0.82917787    -0.13020
C2114       C  0.45008721  0.09782513  0.85146352    -0.14580
C2115       C  0.18451157  0.15230754  0.84698541    -0.13020
C2116       C  0.20781615  0.15196638  0.83618621    -0.14580
C2117       C  0.18554058  0.10354949  0.32975235    -0.13020
C2118       C  0.20793290  0.10331002  0.34229622    -0.14580
C2119       C  0.45132697  0.15729324  0.32348405    -0.13020
C2120       C  0.43769690  0.15817069  0.34560005    -0.14580
C2121       C  0.44056212  0.06433351  0.41133314    -0.16180
C2122       C  0.41924930  0.07251020  0.42663967    -0.31360
H2123       H  0.44436075  0.06869187  0.38942492     0.12840
H2124       H  0.41498456  0.06800307  0.44837215     0.13420
C2125       C  0.05227492  0.06966072  0.38929987    -0.16180
C2126       C  0.03128466  0.06987591  0.36943711    -0.31360
H2127       H  0.06403475  0.08143492  0.39512224     0.12840
H2128       H  0.01737600  0.05871899  0.36575690     0.13420
C2129       C  0.09293826  0.02975895  0.59227977    -0.13020
C2130       C  0.08738283  0.02926037  0.56693574    -0.14580
C2131       C  0.13338477  0.07601626  0.79843286    -0.16180
C2132       C  0.12264806  0.07340302  0.77167781    -0.31360
H2133       H  0.14619312  0.06606489  0.80908900     0.12840
H2134       H  0.10962608  0.08332194  0.76119385     0.13420
C2135       C  0.26851144  0.05779132  0.75035142    -0.16180
C2136       C  0.24116792  0.05297362  0.75845111    -0.31360
H2137       H  0.27932587  0.05064195  0.73338753     0.12840
H2138       H  0.23200842  0.05973823  0.77680447     0.13420
C2139       C  0.34461248  0.07016061  0.27403656    -0.16180
C2140       C  0.36759801  0.07515185  0.28954162    -0.31360
H2141       H  0.32348816  0.07593957  0.27673586     0.12840
H2142       H  0.38904877  0.06997036  0.28546877     0.13420
C2143       C  0.47843810  0.07179848  0.24063499    -0.16180
C2144       C  0.45946147  0.06237792  0.25664592    -0.31360
H2145       H  0.98224729  0.06807252  0.21851433     0.12840
H2146       H  0.45646360  0.06582326  0.27908694     0.13420
C2147       C  0.44753948  0.98374022  0.32115587    -0.13020
C2148       C  0.46016710  0.98377542  0.34402127    -0.14580
C2149       C  0.18848179  0.97480030  0.82232490    -0.13020
C2150       C  0.19330968  0.97515928  0.84768666    -0.14580
C2151       C  0.31336188  0.02583043  0.09860624    -0.13020
C2152       C  0.30563715  0.02667041  0.07377200    -0.14580
C2153       C  0.11932613  0.05823656  0.92471400    -0.16180
C2154       C  0.14544640  0.05340889  0.91418584    -0.31360
H2155       H  0.10975305  0.05127307  0.94271466     0.12840
H2156       H  0.15334580  0.05996074  0.89495582     0.13420
C2157       C  0.25512863  0.07332018  0.86929574    -0.16180
C2158       C  0.27171086  0.07025647  0.89264615    -0.31360
H2159       H  0.23735954  0.06465751  0.86368568     0.12840
H2160       H  0.28848806  0.07937752  0.89894320     0.13420
C2161       C  0.33793285  0.19098033  0.88795111    -0.16180
C2162       C  0.36249419  0.18240626  0.88259337    -0.31360
H2163       H  0.31947251  0.19013140  0.87373485     0.12840
H2164       H  0.38112480  0.18354127  0.89668864     0.13420
C2165       C  0.47615517  0.18253320  0.93086144    -0.16180
C2166       C  0.45605101  0.19153750  0.91558964    -0.31360
H2167       H  0.98056107  0.18644250  0.95277324     0.12840
H2168       H  0.45218668  0.18771342  0.89344226     0.13420
C2169       C  0.12552388  0.18076649  0.40040071    -0.16180
C2170       C  0.13640491  0.17830701  0.37367312    -0.31360
H2171       H  0.11250975  0.17073930  0.41080214     0.12840
H2172       H  0.14915958  0.18838146  0.36309345     0.13420
C2173       C  0.24121163  0.20192224  0.41609901    -0.16180
C2174       C  0.26832990  0.19730389  0.42506646    -0.31360
H2175       H  0.23239026  0.19478737  0.39790972     0.12840
H2176       H  0.27890181  0.20482371  0.44181714     0.13420
C2177       C  0.44375759  0.27126874  0.84991292    -0.13020
C2178       C  0.45798577  0.27090638  0.82778155    -0.14580
C2179       C  0.09024934  0.22517879  0.57801176    -0.13020
C2180       C  0.08454420  0.22540007  0.60335178    -0.14580
C2181       C  0.41618940  0.18247782  0.74687465    -0.16180
C2182       C  0.43775420  0.19090989  0.76155364    -0.31360
H2183       H  0.41150280  0.18668674  0.72508114     0.12840
H2184       H  0.44193935  0.18678502  0.78350636     0.13420
C2185       C  0.02924829  0.18402262  0.79693005    -0.16180
C2186       C  0.05524778  0.18846491  0.78658158    -0.31360
H2187       H  0.00951804  0.18748696  0.78576696     0.12840
H2188       H  0.07482599  0.18515886  0.79791027     0.13420
C2189       C  0.29817793  0.22651412  0.09432703    -0.13020
C2190       C  0.30634036  0.22696460  0.06973686    -0.14580
C2191       C  0.19440047  0.27986852  0.32228304    -0.13020
C2192       C  0.18922302  0.27968840  0.34772978    -0.14580
C2193       C  0.12002416  0.19653896  0.24511912    -0.16180
C2194       C  0.14608554  0.20211081  0.25518646    -0.31360
H2195       H  0.10986230  0.20323596  0.22722238     0.12840
H2196       H  0.15442187  0.19575883  0.27437122     0.13420
C2197       C  0.25469920  0.17971312  0.29961502    -0.16180
C2198       C  0.26483210  0.18276617  0.27268934    -0.31360
H2199       H  0.24151662  0.18932717  0.31057271     0.12840
H2200       H  0.27843652  0.17322455  0.26206000     0.13420
C2201       C  0.15211735  0.93102729  0.64698512    -0.16180
C2202       C  0.14002424  0.92840806  0.62088513    -0.31360
H2203       H  0.16695149  0.92153510  0.65601600     0.12840
H2204       H  0.12544828  0.93798759  0.61166506     0.13420
C2205       C  0.13185165  0.95374957  0.49798277    -0.16180
C2206       C  0.15673873  0.94799559  0.48600219    -0.31360
H2207       H  0.12530136  0.94819956  0.51852179     0.12840
H2208       H  0.16515142  0.95392467  0.46649682     0.13420
C2209       C  0.32199319  0.91101229  0.57038130    -0.13020
C2210       C  0.33746126  0.91148233  0.59126545    -0.14580
C2211       C  0.09086087  0.85666602  0.57311874    -0.13020
C2212       C  0.06679726  0.85655306  0.58187886    -0.14580
C2213       C  0.02196573  0.92969369  0.53921649    -0.16180
C2214       C  0.00991269  0.93333227  0.51334177    -0.31360
H2215       H  0.53751163  0.93861106  0.54879017     0.12840
H2216       H  0.99392368  0.92456198  0.50409961     0.13420
C2217       C  0.03628610  0.95378230  0.65939611    -0.16180
C2218       C  0.00977353  0.94898082  0.66970149    -0.31360
H2219       H  0.04406459  0.94717082  0.64027040     0.12840
H2220       H  0.50040323  0.95601690  0.68757433     0.13420
C2221       C  0.41187212  0.81897882  0.51943944    -0.16180
C2222       C  0.39523880  0.82270488  0.54240182    -0.31360
H2223       H  0.43068303  0.82688692  0.51406661     0.12840
H2224       H  0.37529833  0.81565674  0.54685892     0.13420
C2225       C  0.30408763  0.80980644  0.50379273    -0.16180
C2226       C  0.28655168  0.81976039  0.48741742    -0.31360
H2227       H  0.30738171  0.81333293  0.52617158     0.12840
H2228       H  0.28224266  0.81589974  0.46537232     0.13420
C2229       C  0.31123407  0.73026092  0.59486399    -0.13020
C2230       C  0.31996162  0.72899330  0.57064605    -0.14580
C2231       C  0.34208313  0.81466367  0.65817282    -0.16180
C2232       C  0.36277451  0.82366908  0.67284938    -0.31360
H2233       H  0.33778003  0.81836246  0.63603727     0.12840
H2234       H  0.36794362  0.81951600  0.69457256     0.13420
C2235       C  0.22781851  0.82336480  0.64199106    -0.16180
C2236       C  0.25081225  0.82750067  0.62560812    -0.31360
H2237       H  0.20640750  0.82831299  0.63756303     0.12840
H2238       H  0.27239931  0.82306610  0.63119074     0.13420
C2239       C  0.18770947  0.77782236  0.81845585    -0.13020
C2240       C  0.17840203  0.77744692  0.84278383    -0.14580
C2241       C  0.07574882  0.72302283  0.09806138    -0.13020
C2242       C  0.08019695  0.72389039  0.07271690    -0.14580
C2243       C  0.44968172  0.77132079  0.34718879    -0.13020
C2244       C  0.45929673  0.77115035  0.32308235    -0.14580
C2245       C  0.28066312  0.68763205  0.77059201    -0.16180
C2246       C  0.26339127  0.68373991  0.79296130    -0.31360
H2247       H  0.29994920  0.68008204  0.76598921     0.12840
H2248       H  0.24307532  0.69046917  0.79651452     0.13420
C2249       C  0.23168330  0.68447703  0.92813359    -0.16180
C2250       C  0.21159371  0.69350788  0.91281540    -0.31360
H2251       H  0.23650013  0.68868309  0.94989356     0.12840
H2252       H  0.20743474  0.68950678  0.89080788     0.13420
C2253       C  0.02123594  0.32427016  0.62974031    -0.16180
C2254       C  0.01134617  0.32109412  0.65685912    -0.31360
H2255       H  0.03735015  0.31589637  0.61998044     0.12840
H2256       H  0.49567795  0.32974703  0.66661805     0.13420
C2257       C  0.03329627  0.30043526  0.50876780    -0.16180
C2258       C  0.00669710  0.30507363  0.49840903    -0.31360
H2259       H  0.04089135  0.30712407  0.52793072     0.12840
H2260       H  0.49744626  0.29802627  0.48036288     0.13420
C2261       C  0.05505768  0.68582732  0.28190574    -0.16180
C2262       C  0.03310814  0.68262915  0.29985677    -0.31360
H2263       H  0.07535746  0.67882726  0.28338685     0.12840
H2264       H  0.01203423  0.68850585  0.29671319     0.13420
C2265       C  0.48956885  0.67998030  0.43508381    -0.16180
C2266       C  0.47137723  0.68924115  0.41828299    -0.31360
H2267       H  0.49308636  0.68380460  0.45728149     0.12840
H2268       H  0.46841980  0.68552539  0.39594086     0.13420
C2269       C  0.44029784  0.59795659  0.32634719    -0.13020
C2270       C  0.45453544  0.59756341  0.34804598    -0.14580
C2271       C  0.20691897  0.64821741  0.33223639    -0.13020
C2272       C  0.18654312  0.64760367  0.34776510    -0.14580
C2273       C  0.36061715  0.69062325  0.36312846    -0.16180
C2274       C  0.35778962  0.68729253  0.39123863    -0.31360
H2275       H  0.35880886  0.70383003  0.35490889     0.12840
H2276       H  0.35643457  0.67391210  0.39906429     0.13420
C2277       C  0.43083980  0.68857812  0.25504218    -0.16180
C2278       C  0.41036032  0.67970479  0.23993154    -0.31360
H2279       H  0.43459996  0.68488846  0.27728390     0.12840
H2280       H  0.40600506  0.68345914  0.21784221     0.13420
C2281       C  0.38462357  0.32372949  0.01723088    -0.16180
C2282       C  0.37134179  0.32737143  0.04257303    -0.31360
H2283       H  0.39993970  0.33295244  0.00801259     0.12840
H2284       H  0.35645514  0.31802442  0.05214589     0.13420
C2285       C  0.37770293  0.30797553  0.17133584    -0.16180
C2286       C  0.35027073  0.30392676  0.16211491    -0.31360
H2287       H  0.38753663  0.30022845  0.18823115     0.12840
H2288       H  0.34197867  0.31127517  0.14391719     0.13420
C2289       C  0.24165958  0.32546267  0.15043456    -0.16180
C2290       C  0.25411462  0.32702184  0.12427957    -0.31360
H2291       H  0.23062069  0.33640168  0.16025864     0.12840
H2292       H  0.26586364  0.31613506  0.11503851     0.13420
C2293       C  0.23909069  0.30541724  0.99209264    -0.16180
C2294       C  0.26489090  0.30039253  0.00344331    -0.31360
H2295       H  0.23051504  0.29907723  0.97305318     0.12840
H2296       H  0.27158629  0.30634524  0.02358615     0.13420
C2297       C  0.29824972  0.39785203  0.08353334    -0.13020
C2298       C  0.32213078  0.40122786  0.09075506    -0.14580
C2299       C  0.06976553  0.34518027  0.07334398    -0.13020
C2300       C  0.05241390  0.34532606  0.09288773    -0.14580
C2301       C  0.19322695  0.59809088  0.82864798    -0.13020
C2302       C  0.20694091  0.59809240  0.85078209    -0.14580
C2303       C  0.46059226  0.65375667  0.82534788    -0.13020
C2304       C  0.43696711  0.65469080  0.83507947    -0.14580
C2305       C  0.11740820  0.68336189  0.87820474    -0.16180
C2306       C  0.09277911  0.69037089  0.88771535    -0.31360
H2307       H  0.13772404  0.68538335  0.88944958     0.12840
H2308       H  0.07263462  0.68860192  0.87623128     0.13420
C2309       C  0.15673968  0.68472402  0.73667496    -0.16180
C2310       C  0.17066028  0.69636862  0.75357728    -0.31360
H2311       H  0.15491816  0.68714538  0.71373916     0.12840
H2312       H  0.17164633  0.69407285  0.77661529     0.13420
C2313       C  0.13911550  0.32679458  0.54974955    -0.16180
C2314       C  0.15064656  0.32418314  0.52337676    -0.31360
H2315       H  0.12501949  0.31705027  0.55944611     0.12840
H2316       H  0.16515825  0.33380529  0.51396528     0.13420
C2317       C  0.12988159  0.30169725  0.67193100    -0.16180
C2318       C  0.15547195  0.30749067  0.68279702    -0.31360
H2319       H  0.12234091  0.30756965  0.65201719     0.12840
H2320       H  0.16484836  0.30126106  0.70155844     0.13420
C2321       C  0.06480218  0.39731918  0.58585849    -0.13020
C2322       C  0.08871492  0.39766916  0.59529639    -0.14580
C2323       C  0.33444208  0.34383797  0.57473246    -0.13020
C2324       C  0.31953667  0.34493796  0.59592213    -0.14580
C2325       C  0.22256070  0.43791122  0.53695356    -0.16180
C2326       C  0.24641188  0.43505582  0.55271215    -0.31360
H2327       H  0.20136421  0.43423023  0.54486667     0.12840
H2328       H  0.26773749  0.43798230  0.54422506     0.13420
C2329       C  0.33882790  0.44032922  0.51050724    -0.16180
C2330       C  0.35962428  0.43191199  0.49486096    -0.31360
H2331       H  0.33532448  0.43601721  0.53249214     0.12840
H2332       H  0.36423454  0.43654298  0.47327025     0.12140
C2333       C  0.26392887  0.56737963  0.40441943    -0.16180
C2334       C  0.25397308  0.57074923  0.37752376    -0.31360
H2335       H  0.27887444  0.57632796  0.41487005     0.12840
H2336       H  0.23856319  0.56209049  0.36711813     0.13420
C2337       C  0.11751235  0.55339884  0.43077197    -0.16180
C2338       C  0.14294236  0.54729478  0.42051576    -0.31360
H2339       H  0.10755862  0.54755176  0.44961308     0.12840
H2340       H  0.15086862  0.55284939  0.40046054     0.13420
C2341       C  0.31023752  0.44498889  0.66541707    -0.16180
C2342       C  0.29076610  0.43594456  0.68149954    -0.31360
H2343       H  0.31413952  0.44080143  0.64346509     0.12840
H2344       H  0.28591716  0.44043976  0.70308100     0.13420
C2345       C  0.30853586  0.52128003  0.57795412    -0.13020
C2346       C  0.32118815  0.52309823  0.60058922    -0.14580
C2347       C  0.37740003  0.57497569  0.76881208    -0.16180
C2348       C  0.38942236  0.57840974  0.79474627    -0.31360
H2349       H  0.36276217  0.58421182  0.75876226     0.12840
H2350       H  0.40372574  0.56910220  0.80507791     0.13420
C2351       C  0.49871667  0.55421407  0.75597855    -0.16180
C2352       C  0.02545103  0.55908891  0.74683368    -0.31360
H2353       H  0.49045715  0.56034964  0.77534884     0.12840
H2354       H  0.03550160  0.55253197  0.72878094     0.13420
C2355       C  0.41111490  0.43378933  0.64768994    -0.16180
C2356       C  0.39427757  0.43149643  0.62434859    -0.31360
H2357       H  0.42803043  0.42456202  0.65319217     0.12840
H2358       H  0.37601727  0.43992353  0.61971451     0.13420
C2359       C  0.45322366  0.47902364  0.81968983    -0.13020
C2360       C  0.45677430  0.47911199  0.84520850    -0.14580
C2361       C  0.40767935  0.55768189  0.91476220    -0.16180
C2362       C  0.38040427  0.56174599  0.92344237    -0.31360
H2363       H  0.41665516  0.56489569  0.89668583     0.12840
H2364       H  0.37004759  0.55405691  0.94017499     0.13420
C2365       C  0.01720825  0.57502260  0.87708780    -0.16180
C2366       C  0.03049319  0.57255840  0.90259080    -0.31360
H2367       H  0.00473491  0.56463963  0.86712814     0.12840
H2368       H  0.04259512  0.58302299  0.91282810     0.13420
C2369       C  0.08939670  0.44431034  0.00803241    -0.16180
C2370       C  0.10658236  0.43415627  0.99158468    -0.31360
H2371       H  0.08659488  0.44091152  0.03054885     0.12840
H2372       H  0.11038646  0.43784646  0.96934839     0.13420
C2373       C  0.47414280  0.43837081  0.02463285    -0.16180
C2374       C  0.49151463  0.43581337  0.04747575    -0.31360
H2375       H  0.45317237  0.43200817  0.02316427     0.12840
H2376       H  0.51298691  0.44153951  0.04879454     0.13420
C2377       C  0.06870319  0.52247239  0.07565956    -0.13020
C2378       C  0.08018843  0.52215893  0.09903450    -0.14580
C2379       C  0.18878918  0.47161784  0.32699402    -0.13020
C2380       C  0.19091203  0.47130635  0.35279040    -0.14580
C2381       C  0.13556297  0.42846865  0.12977739    -0.16180
C2382       C  0.15096949  0.42845733  0.15422911    -0.31360
H2383       H  0.11978137  0.43857081  0.12525928     0.12840
H2384       H  0.16550068  0.41780242  0.15952174     0.13420
C2385       C  0.05018637  0.44138541  0.16666321    -0.16180
C2386       C  0.02793765  0.43327095  0.18076714    -0.31360
H2387       H  0.05521959  0.43693761  0.14509190     0.12840
H2388       H  0.02211999  0.43795092  0.20199395     0.13420
C2389       C  0.27163510  0.55439946  0.25029895    -0.16180
C2390       C  0.24459360  0.54946836  0.25873479    -0.31360
H2391       H  0.28245599  0.54744463  0.23311753     0.12840
H2392       H  0.23549875  0.55604137  0.27731562     0.13420
C2393       C  0.12447479  0.56894702  0.27278008    -0.16180
C2394       C  0.13648758  0.57157616  0.29897978    -0.31360
H2395       H  0.11045861  0.57866017  0.26308420     0.12840
H2396       H  0.15009585  0.56175837  0.30896167     0.13420
C2397       C  0.13757308  0.82397579  0.01691805    -0.16180
C2398       C  0.12420761  0.82675589  0.04240488    -0.31360
H2399       H  0.15344468  0.83321996  0.00876227     0.12840
H2400       H  0.10869826  0.81735632  0.05080310     0.13420
C2401       C  0.14531825  0.80308256  0.17637404    -0.16180
C2402       C  0.12126056  0.79678052  0.16353757    -0.31360
H2403       H  0.15316875  0.79755852  0.19639578     0.12840
H2404       H  0.11518189  0.80204185  0.14266548     0.13420
C2405       C  0.22231562  0.93452744  0.02465380    -0.16180
C2406       C  0.23885391  0.93218738  0.04811206    -0.31360
H2407       H  0.20375013  0.92622373  0.02014874     0.12840
H2408       H  0.25858109  0.93961811  0.05177336     0.13420
C2409       C  0.28772123  0.94289313  0.16783057    -0.16180
C2410       C  0.27000849  0.93283167  0.18405616    -0.31360
H2411       H  0.29054833  0.93969266  0.14526239     0.12840
H2412       H  0.26600222  0.93634394  0.20630150     0.13420
C2413       C  0.50002850  0.81876379  0.15071889    -0.16180
C2414       C  0.50947897  0.82262919  0.12382146    -0.31360
H2415       H  0.48433766  0.82715968  0.16114545     0.12840
H2416       H  0.02569043  0.81468815  0.11333017     0.13420
C2417       C  0.49343637  0.80637306  0.99560657    -0.16180
C2418       C  0.01959280  0.80132308  0.00622948    -0.31360
H2419       H  0.48444817  0.79980167  0.97697246     0.12840
H2420       H  0.02697373  0.80749711  0.02593784     0.13420
C2421       C  0.05481369  0.89736814  0.07872609    -0.13020
C2422       C  0.07882848  0.89427361  0.08567006    -0.14580
C2423       C  0.32279792  0.84614544  0.07334978    -0.13020
C2424       C  0.30726859  0.84649005  0.09421145    -0.14580
C2425       C  0.38506076  0.93163455  0.12628183    -0.16180
C2426       C  0.40151135  0.93451158  0.14975965    -0.31360
H2427       H  0.36466731  0.93830490  0.12284526     0.12840
H2428       H  0.42087062  0.92693888  0.15394622     0.13420
C2429       C  0.33420645  0.94422424  0.00590312    -0.16180
C2430       C  0.35429673  0.93492821  0.99101167    -0.31360
H2431       H  0.32964584  0.94028142  0.02788526     0.12840
H2432       H  0.35985231  0.93919667  0.96943408     0.13420
Zr2433     Zr  0.87970429  0.88770291  0.05526498     2.17510
O2434       O  0.84177468  0.88362423  0.09103471    -0.51080
O2435       O  0.85994268  0.91096117  0.02465232    -0.74280
O2436       O  0.87701835  0.91242748  0.08788636    -0.81070
O2437       O  0.86479841  0.84070925  0.04665268    -0.82810
O2438       O  0.92278214  0.91913856  0.10186442    -0.78440
O2439       O  0.84251647  0.86669839  0.04218060    -0.90070
O2440       O  0.89463188  0.91517946  0.99080143    -0.76040
O2441       O  0.91922303  0.90516213  0.03998947    -0.85530
O2442       O  0.89431713  0.87463089  0.01054570    -0.85220
O2443       O  0.91510594  0.88492249  0.09255414    -0.71970
O2444       O  0.89591023  0.85854103  0.06367843    -0.84110
Zr2445     Zr  0.98405161  0.86023560  0.04364388     2.26420
Zr2446     Zr  0.95553550  0.90160496  0.07586495     2.06270
Zr2447     Zr  0.91052820  0.84491318  0.02005980     2.10050
Zr2448     Zr  0.93325534  0.89277913  0.99575458     1.78760
O2449       O  0.89219815  0.81511038  0.01679401    -0.92910
O2450       O  0.96018934  0.91968567  0.98702401    -0.40720
O2451       O  0.94961757  0.86304067  0.00478403    -0.77350
O2452       O  0.97094199  0.88973421  0.03116792    -0.96040
O2453       O  0.96884795  0.87246709  0.08768503    -0.89340
O2454       O  0.94455182  0.84256949  0.05836463    -0.92190
C2455       C  0.87051746  0.91937570  0.00302071     1.01570
C2456       C  0.84320804  0.85090226  0.05129231     1.14500
C2457       C  0.89544726  0.92052834  0.10355063     1.05280
O2458       O  0.96707062  0.93155157  0.06213077    -0.94340
O2459       O  0.50689578  0.90460742  0.07581055    -0.90080
O2460       O  0.52272660  0.87778693  0.06211070    -0.83230
C2461       C  0.52645151  0.89329635  0.07142168     1.11920
O2462       O  0.88617351  0.85538873  0.13368513    -0.96310
Zr2463     Zr  0.92816058  0.85566626  0.10204276     1.88940
O2464       O  0.00299548  0.84075969  0.08175583    -0.72960
O2465       O  0.97407835  0.90518706  0.12454036    -0.52230
O2466       O  0.94177981  0.86737949  0.14882532    -0.96900
O2467       O  0.90759126  0.82677347  0.11096252    -0.54120
O2468       O  0.96901134  0.83976126  0.11674258    -0.73480
C2469       C  0.99334533  0.83550783  0.10633915     0.98860
O2470       O  0.52478958  0.86082895  0.01037300    -0.62300
O2471       O  0.89036857  0.84387243  0.97170396    -0.57100
O2472       O  0.99358699  0.83291672  0.02102046    -0.93790
O2473       O  0.94976635  0.82366583  0.00519067    -0.92210
O2474       O  0.91034133  0.88627003  0.94990918    -0.92570
O2475       O  0.96764568  0.89074233  0.95636090    -0.91350
C2476       C  0.97759985  0.82182175  0.00810514     1.17710
H2477       H  0.87866585  0.87504788  0.99685742     0.33650
H2478       H  0.98776822  0.89595519  0.02427778     0.44500
H2479       H  0.95012761  0.83056907  0.06149411     0.38030
H2480       H  0.90782531  0.88889938  0.11080437     0.34510
H2481       H  0.95054002  0.92510639  0.97026296     0.26300
H2482       H  0.97600561  0.91797537  0.12718698     0.32230
H2483       H  0.94506172  0.85700864  0.16113780     0.38140
H2484       H  0.90876865  0.89772389  0.94011027     0.32600
H2485       H  0.87014641  0.84783136  0.97367159     0.31480
H2486       H  0.87480480  0.81587661  0.00449224     0.33160
H2487       H  0.92000855  0.82153543  0.12597433     0.32130
H2488       H  0.98537142  0.88602265  0.96532900     0.36130
H2489       H  0.01624768  0.85785606  0.99132185     0.28860
H2490       H  0.84012600  0.89413795  0.10320032     0.33090
H2491       H  0.89238374  0.84935987  0.15147294     0.35940
H2492       H  0.90031963  0.85330273  0.96097843     0.28550
H2493       H  0.53018295  0.87330923  0.00841867     0.41430
H2494       H  0.94830458  0.93681222  0.05686201     0.31480
H2495       H  0.95514092  0.92735197  0.00335200     0.39100
H2496       H  0.91174998  0.81993869  0.09342506     0.30950
H2497       H  0.95794105  0.90172130  0.13731053     0.31010
H2498       H  0.84964559  0.87470230  0.10424873     0.31280
Zr2499     Zr  0.74705535  0.88779506  0.11667583     2.17510
O2500       O  0.78658032  0.88926040  0.08224951    -0.51080
O2501       O  0.76497668  0.90985527  0.14982347    -0.74280
O2502       O  0.74821760  0.91338514  0.08628664    -0.81070
O2503       O  0.76576306  0.84115440  0.12165584    -0.82810
O2504       O  0.70224830  0.91767974  0.07139559    -0.78440
O2505       O  0.78713686  0.86772140  0.12339996    -0.90070
O2506       O  0.73084619  0.91266349  0.18460564    -0.76040
O2507       O  0.70698075  0.90381569  0.13414834    -0.85530
O2508       O  0.73475333  0.87416970  0.16148080    -0.85220
O2509       O  0.71123911  0.88487117  0.07968244    -0.71970
O2510       O  0.73343284  0.85844749  0.10664871    -0.84110
Zr2511     Zr  0.64488245  0.85746451  0.12937543     2.26420
Zr2512     Zr  0.67039956  0.90019797  0.09888783     2.06270
Zr2513     Zr  0.72139495  0.84435663  0.15046991     2.10050
Zr2514     Zr  0.69376094  0.88999368  0.17789332     1.78760
O2515       O  0.74252634  0.81541389  0.15554558    -0.92910
O2516       O  0.66741309  0.91653457  0.18968909    -0.40720
O2517       O  0.68030188  0.86015788  0.16718826    -0.77350
O2518       O  0.65560312  0.88713352  0.14310765    -0.96040
O2519       O  0.65925730  0.87100721  0.08589551    -0.89340
O2520       O  0.68578379  0.84124937  0.11335682    -0.92190
C2521       C  0.75438899  0.91742965  0.17206204     1.01570
C2522       C  0.78671687  0.85166208  0.11558997     1.14500
C2523       C  0.72927263  0.92053841  0.07030717     1.05280
O2524       O  0.64848620  0.92347474  0.12687012    -0.94340
O2525       O  0.62686031  0.88985646  0.07801717    -0.90080
O2526       O  0.60554722  0.87608934  0.11482697    -0.83230
C2527       C  0.60503523  0.88651408  0.09342890     1.11920
O2528       O  0.74539294  0.85396965  0.04351400    -0.96310
Zr2529     Zr  0.69976085  0.85526880  0.06946986     1.88940
O2530       O  0.62897761  0.83901415  0.08920069    -0.72960
O2531       O  0.64549611  0.92010051  0.06610194    -0.52230
O2532       O  0.69919711  0.86411987  0.01917063    -0.96900
O2533       O  0.70518573  0.82415868  0.05950425    -0.54120
O2534       O  0.65167665  0.85175432  0.05217944    -0.73480
C2535       C  0.63472806  0.84021007  0.06225900     0.98860
O2536       O  0.60311440  0.85327660  0.16088123    -0.62300
O2537       O  0.74298375  0.84611905  0.19817150    -0.57100
O2538       O  0.64144248  0.82977339  0.15264059    -0.93790
O2539       O  0.68649086  0.82161244  0.16647319    -0.92210
O2540       O  0.71615774  0.88144277  0.22305857    -0.92570
O2541       O  0.65844208  0.88601275  0.21615036    -0.91350
C2542       C  0.65896164  0.81910379  0.16444116     1.17710
H2543       H  0.75074685  0.87507660  0.17472148     0.33650
H2544       H  0.63842730  0.89269769  0.15040421     0.44500
H2545       H  0.68101741  0.82910932  0.11019837     0.38030
H2546       H  0.71806836  0.88909284  0.06135521     0.34510
H2547       H  0.67386789  0.91960605  0.20933450     0.26300
H2548       H  0.65334250  0.93194956  0.06973648     0.32230
H2549       H  0.69714993  0.85307597  0.00829309     0.38140
H2550       H  0.71760059  0.89242056  0.23420650     0.32600
H2551       H  0.73647186  0.83534769  0.20810186     0.31480
H2552       H  0.76147580  0.81732705  0.16489725     0.33160
H2553       H  0.70921085  0.82359245  0.03863249     0.32130
H2554       H  0.64137062  0.88087492  0.20646516     0.36130
H2555       H  0.61131902  0.85110733  0.18021264     0.28860
H2556       H  0.79490489  0.90118818  0.08309773     0.33090
H2557       H  0.75576186  0.84394820  0.05208484     0.35940
H2558       H  0.76391344  0.84439417  0.19497966     0.28550
H2559       H  0.59394447  0.86486706  0.16285841     0.41430
H2560       H  0.66191131  0.93349643  0.12470318     0.31480
H2561       H  0.67614094  0.92569339  0.17736416     0.39100
H2562       H  0.68563319  0.81903881  0.06148436     0.30950
H2563       H  0.65228046  0.91703383  0.04657312     0.31010
H2564       H  0.77753567  0.88835750  0.06301909     0.31280
Zr2565     Zr  0.66009823  0.51273885  0.25892588     2.17510
O2566       O  0.64616145  0.52046719  0.30787555    -0.51080
O2567       O  0.70442831  0.53041510  0.26183312    -0.74280
O2568       O  0.68132589  0.49419144  0.29529000    -0.81070
O2569       O  0.61692544  0.55102947  0.23196711    -0.82810
O2570       O  0.68242514  0.46658067  0.27765434    -0.78440
O2571       O  0.64205882  0.54071983  0.27033303    -0.90070
O2572       O  0.72690590  0.53209690  0.21861267    -0.76040
O2573       O  0.69514214  0.49795029  0.23124279    -0.85530
O2574       O  0.66207385  0.52865313  0.21504683    -0.85220
O2575       O  0.63898174  0.48408344  0.25486998    -0.71970
O2576       O  0.61139415  0.51237714  0.24025544    -0.84110
Zr2577     Zr  0.62852647  0.48408914  0.16216193     2.26420
Zr2578     Zr  0.67432196  0.46943673  0.22582227     2.06270
Zr2579     Zr  0.61407241  0.52795832  0.19567419     2.10050
Zr2580     Zr  0.69653194  0.51376911  0.18690293     1.78760
O2581       O  0.56357295  0.53419172  0.20572370    -0.92910
O2582       O  0.74527579  0.50219249  0.18284489    -0.40720
O2583       O  0.64855159  0.51299382  0.16655831    -0.77350
O2584       O  0.67758042  0.48469577  0.18065241    -0.96040
O2585       O  0.62626843  0.46845454  0.20612597    -0.89340
O2586       O  0.59401039  0.49923312  0.18997972    -0.92190
C2587       C  0.72470439  0.53618544  0.24536132     1.01570
C2588       C  0.62805792  0.55255710  0.25719219     1.14500
C2589       C  0.68465393  0.47770225  0.29813496     1.05280
O2590       O  0.72508476  0.46810106  0.21239946    -0.94340
O2591       O  0.65845957  0.44515042  0.19622722    -0.90080
O2592       O  0.65544889  0.45841973  0.15321911    -0.83230
C2593       C  0.65495160  0.44485295  0.16898624     1.11920
O2594       O  0.57320027  0.48988585  0.28182518    -0.96310
Zr2595     Zr  0.59160343  0.48335716  0.23393806     1.88940
O2596       O  0.58812962  0.46263355  0.16096643    -0.72960
O2597       O  0.68986651  0.44019888  0.23983896    -0.52230
O2598       O  0.59060084  0.45652682  0.26224353    -0.96900
O2599       O  0.54176677  0.49353405  0.23255704    -0.54120
O2600       O  0.56595620  0.46137962  0.20436858    -0.73480
C2601       C  0.56900288  0.45612555  0.17823786     0.98860
O2602       O  0.63569282  0.47998463  0.11068870    -0.62300
O2603       O  0.62099774  0.55573272  0.17090739    -0.57100
O2604       O  0.60367222  0.50170421  0.12691614    -0.93790
O2605       O  0.59535117  0.52849611  0.14627634    -0.92210
O2606       O  0.69872160  0.54198833  0.16269311    -0.92570
O2607       O  0.71233474  0.51024047  0.13732812    -0.91350
C2608       C  0.59397252  0.51732513  0.12567187     1.17710
H2609       H  0.66846701  0.54054943  0.21794448     0.33650
H2610       H  0.69087509  0.47875934  0.16805330     0.44500
H2611       H  0.57557422  0.49954034  0.18031003     0.38030
H2612       H  0.63599092  0.47891945  0.27354454     0.34510
H2613       H  0.75708440  0.51216718  0.17592267     0.26300
H2614       H  0.70802245  0.44177504  0.25078916     0.32230
H2615       H  0.57048957  0.45218103  0.26074350     0.38140
H2616       H  0.71958625  0.54476268  0.16143600     0.32600
H2617       H  0.60525069  0.56329755  0.17799563     0.31480
H2618       H  0.55704719  0.54125599  0.18912323     0.33160
H2619       H  0.53013435  0.48341026  0.23917334     0.32130
H2620       H  0.69554924  0.50493986  0.12739311     0.36130
H2621       H  0.65678673  0.47865186  0.10809112     0.28860
H2622       H  0.66438502  0.52238569  0.31858654     0.33090
H2623       H  0.55783063  0.48115000  0.28562603     0.35940
H2624       H  0.63880920  0.56075740  0.17934937     0.28550
H2625       H  0.62741914  0.46834986  0.10624703     0.41430
H2626       H  0.73568934  0.46988728  0.23064590     0.31480
H2627       H  0.75168421  0.50040464  0.20292835     0.39100
H2628       H  0.53688214  0.49466883  0.21194254     0.30950
H2629       H  0.67553843  0.43608813  0.25416046     0.31010
H2630       H  0.63749919  0.50977982  0.31633867     0.31280
Zr2631     Zr  0.49048343  0.51938315  0.91374315     2.17510
O2632       O  0.49490959  0.53090281  0.86490829    -0.51080
O2633       O  0.94862939  0.53917638  0.91172482    -0.74280
O2634       O  0.97180754  0.50038290  0.87635538    -0.81070
O2635       O  0.53390604  0.55555934  0.94461172    -0.82810
O2636       O  0.95869271  0.47397579  0.89460529    -0.78440
O2637       O  0.52362534  0.54234109  0.90246917    -0.90070
O2638       O  0.92360285  0.53896376  0.95356980    -0.76040
O2639       O  0.95315536  0.50569969  0.94050431    -0.85530
O2640       O  0.48949293  0.53459248  0.95834846    -0.85220
O2641       O  0.50732302  0.48973524  0.91781119    -0.71970
O2642       O  0.53873960  0.51673605  0.93327867    -0.84110
Zr2643     Zr  0.51654684  0.48795917  0.01013959     2.26420
Zr2644     Zr  0.96947844  0.47618144  0.94551293     2.06270
Zr2645     Zr  0.53716471  0.53150045  0.97861718     2.10050
Zr2646     Zr  0.95296509  0.52057624  0.98550876     1.78760
O2647       O  0.58810012  0.53477252  0.96670189    -0.92910
O2648       O  0.90406800  0.50903822  0.98991944    -0.40720
O2649       O  0.50034618  0.51762417  0.00652613    -0.77350
O2650       O  0.96808841  0.49076602  0.99134289    -0.96040
O2651       O  0.51680670  0.47336221  0.96542311    -0.89340
O2652       O  0.55339796  0.50213099  0.98358844    -0.92190
C2653       C  0.92741799  0.54420624  0.92758001     1.01570
C2654       C  0.52926189  0.55583756  0.91746731     1.14500
C2655       C  0.96223439  0.48475260  0.87383402     1.05280
O2656       O  0.91701236  0.47383498  0.94572924    -0.94340
O2657       O  0.96243983  0.45555662  0.98426839    -0.90080
O2658       O  0.00651217  0.45767037  0.00347104    -0.83230
C2659       C  0.98142546  0.45104494  0.00270915     1.11920
O2660       O  0.57408584  0.49259001  0.89148648    -0.96310
Zr2661     Zr  0.55417842  0.48687642  0.93914157     1.88940
O2662       O  0.55702424  0.46784017  0.01523236    -0.72960
O2663       O  0.97431744  0.44598692  0.92978700    -0.52230
O2664       O  0.55324377  0.46005949  0.91096031    -0.96900
O2665       O  0.60540632  0.49431467  0.94166339    -0.54120
O2666       O  0.57451963  0.46383100  0.97011690    -0.73480
C2667       C  0.57295637  0.45973839  0.99697212     0.98860
O2668       O  0.99489537  0.48092405  0.05651812    -0.62300
O2669       O  0.53905067  0.55903999  0.00470387    -0.57100
O2670       O  0.54383254  0.50316271  0.04659260    -0.93790
O2671       O  0.55432713  0.53017867  0.02865948    -0.92210
O2672       O  0.95324276  0.54939503  0.00762764    -0.92570
O2673       O  0.93615434  0.51931986  0.03504176    -0.91350
C2674       C  0.55475772  0.51851585  0.04866973     1.17710
H2675       H  0.48432267  0.54670961  0.95580388     0.33650
H2676       H  0.95449481  0.48513016  0.00412271     0.44500
H2677       H  0.57169692  0.50153914  0.99347170     0.38030
H2678       H  0.50989481  0.48422804  0.89939288     0.34510
H2679       H  0.89206199  0.51932464  0.99458774     0.26300
H2680       H  0.95562373  0.44302600  0.92064346     0.32230
H2681       H  0.57265979  0.45491484  0.91348336     0.38140
H2682       H  0.93275491  0.55303401  0.00774250     0.32600
H2683       H  0.55520717  0.56566152  0.99589334     0.31480
H2684       H  0.59785980  0.53618861  0.98548848     0.33160
H2685       H  0.61546743  0.48361643  0.93526195     0.32130
H2686       H  0.94906656  0.51079407  0.04450785     0.36130
H2687       H  0.99073859  0.49239430  0.06536496     0.28860
H2688       H  0.47518048  0.53104376  0.85669815     0.33090
H2689       H  0.58883001  0.48348008  0.88821978     0.35940
H2690       H  0.52143947  0.56538714  0.99877201     0.28550
H2691       H  0.97563438  0.47603444  0.05188323     0.41430
H2692       H  0.91061813  0.48060625  0.92874754     0.31480
H2693       H  0.89840710  0.50593508  0.97005528     0.39100
H2694       H  0.60999530  0.49511532  0.96238376     0.30950
H2695       H  0.98837697  0.44639832  0.91376870     0.31010
H2696       H  0.50562134  0.52206776  0.85367226     0.31280
Zr2697     Zr  0.91373339  0.51860117  0.75510143     2.17510
O2698       O  0.89715722  0.52416504  0.80400424    -0.51080
O2699       O  0.95777432  0.53606753  0.75869990    -0.74280
O2700       O  0.93835651  0.50086795  0.78994881    -0.81070
O2701       O  0.86867123  0.55623950  0.72958156    -0.82810
O2702       O  0.94479181  0.47383210  0.77096058    -0.78440
O2703       O  0.89669023  0.54695403  0.76675934    -0.90070
O2704       O  0.98011401  0.53781990  0.71539524    -0.76040
O2705       O  0.94921594  0.50480946  0.72638079    -0.85530
O2706       O  0.91366278  0.53471678  0.71139861    -0.85220
O2707       O  0.89580670  0.48921115  0.75118922    -0.71970
O2708       O  0.86473481  0.51732988  0.73780484    -0.84110
Zr2709     Zr  0.88245995  0.49047702  0.65916897     2.26420
Zr2710     Zr  0.93090366  0.47573696  0.72046761     2.06270
Zr2711     Zr  0.86508262  0.53318032  0.69330515     2.10050
Zr2712     Zr  0.94880667  0.52094558  0.68252662     1.78760
O2713       O  0.81527602  0.53901368  0.70684033    -0.92910
O2714       O  0.99694775  0.50907956  0.67514413    -0.40720
O2715       O  0.90036979  0.51973642  0.66315189    -0.77350
O2716       O  0.93176947  0.49143131  0.67581867    -0.96040
O2717       O  0.88271530  0.47432159  0.70251804    -0.89340
O2718       O  0.84744588  0.50398306  0.68850421    -0.92190
C2719       C  0.97817691  0.54160317  0.74228036     1.01570
C2720       C  0.88121170  0.55833365  0.75406226     1.14500
C2721       C  0.94568001  0.48483601  0.79165692     1.05280
O2722       O  0.98183358  0.47341282  0.70818991    -0.94340
O2723       O  0.92126865  0.45163065  0.68771879    -0.90080
O2724       O  0.90086422  0.46300361  0.64749582    -0.83230
C2725       C  0.91093930  0.45044362  0.66221332     1.11920
O2726       O  0.83074908  0.49362104  0.78064172    -0.96310
Zr2727     Zr  0.84793419  0.48769549  0.73210442     1.88940
O2728       O  0.84426261  0.46800569  0.65773710    -0.72960
O2729       O  0.93645598  0.44572662  0.73732139    -0.52230
O2730       O  0.85004153  0.46072674  0.75998832    -0.96900
O2731       O  0.79671047  0.49497168  0.73205394    -0.54120
O2732       O  0.82514066  0.46506029  0.70242074    -0.73480
C2733       C  0.82735658  0.46041353  0.67596005     0.98860
O2734       O  0.89828436  0.48998560  0.60915931    -0.62300
O2735       O  0.86944542  0.56068026  0.66725269    -0.57100
O2736       O  0.85000187  0.50485197  0.62687447    -0.93790
O2737       O  0.84114915  0.53173770  0.64561748    -0.92210
O2738       O  0.95106067  0.55041057  0.66274151    -0.92570
O2739       O  0.96266921  0.52062188  0.63204067    -0.91350
C2740       C  0.83842334  0.51994091  0.62594952     1.17710
H2741       H  0.91960539  0.54669184  0.71433847     0.33650
H2742       H  0.94418974  0.48551615  0.66233065     0.44500
H2743       H  0.82855488  0.50364332  0.67975322     0.38030
H2744       H  0.89458101  0.48367621  0.76978891     0.34510
H2745       H  0.00885099  0.51924766  0.66921814     0.26300
H2746       H  0.95616704  0.44500345  0.74547052     0.32230
H2747       H  0.83034483  0.45569698  0.75878251     0.38140
H2748       H  0.97194109  0.55313532  0.66144763     0.32600
H2749       H  0.85364470  0.56802901  0.67482152     0.31480
H2750       H  0.80755581  0.54620567  0.69091483     0.33160
H2751       H  0.78693605  0.48433118  0.73940653     0.32130
H2752       H  0.95467153  0.50953263  0.62448154     0.36130
H2753       H  0.90137172  0.50241375  0.60398612     0.28860
H2754       H  0.91469301  0.52701508  0.81527887     0.33090
H2755       H  0.81652840  0.48429978  0.78506443     0.35940
H2756       H  0.88733392  0.56613395  0.67477033     0.28550
H2757       H  0.91800913  0.48505879  0.60958098     0.41430
H2758       H  0.99211660  0.47582142  0.72642367     0.31480
H2759       H  0.00394282  0.50621476  0.69468778     0.39100
H2760       H  0.79105027  0.49550838  0.71156857     0.30950
H2761       H  0.92327161  0.44450409  0.75396591     0.31010
H2762       H  0.89049215  0.51271505  0.81148904     0.31280
Zr2763     Zr  0.72648135  0.51121606  0.41953887     2.17510
O2764       O  0.74266233  0.51761798  0.37069935    -0.51080
O2765       O  0.68244562  0.52842959  0.41689633    -0.74280
O2766       O  0.70311129  0.49319821  0.38392843    -0.81070
O2767       O  0.77118026  0.54876215  0.44414754    -0.82810
O2768       O  0.69731318  0.46581748  0.40211570    -0.78440
O2769       O  0.74284195  0.53971009  0.40706431    -0.90070
O2770       O  0.66146526  0.53066006  0.46081280    -0.76040
O2771       O  0.69088352  0.49722713  0.44819942    -0.85530
O2772       O  0.72609211  0.52720598  0.46327954    -0.85220
O2773       O  0.74525813  0.48216179  0.42399232    -0.71970
O2774       O  0.77553066  0.51035660  0.43693801    -0.84110
Zr2775     Zr  0.76010534  0.48192132  0.51580344     2.26420
Zr2776     Zr  0.70904848  0.46822294  0.45330887     2.06270
Zr2777     Zr  0.77439355  0.52603326  0.48131269     2.10050
Zr2778     Zr  0.69201646  0.51267927  0.49268990     1.78760
O2779       O  0.82514413  0.53180372  0.47132579    -0.92910
O2780       O  0.64372723  0.50043823  0.49863897    -0.40720
O2781       O  0.74064018  0.51096535  0.51124253    -0.77350
O2782       O  0.71025970  0.48353221  0.49899610    -0.96040
O2783       O  0.75801098  0.46695125  0.47126281    -0.89340
O2784       O  0.79372704  0.49721873  0.48680465    -0.92190
C2785       C  0.66292818  0.53436783  0.43382861     1.01570
C2786       C  0.75875142  0.55096208  0.41961511     1.14500
C2787       C  0.69675250  0.47700146  0.38150270     1.05280
O2788       O  0.65655064  0.46656615  0.45564882    -0.94340
O2789       O  0.70261974  0.44803448  0.49280778    -0.90080
O2790       O  0.74831561  0.45282736  0.50104029    -0.83230
C2791       C  0.72459690  0.44611806  0.50878282     1.11920
O2792       O  0.80914902  0.48678547  0.39400729    -0.96310
Zr2793     Zr  0.79345908  0.48100084  0.44315193     1.88940
O2794       O  0.80252891  0.46228921  0.51869094    -0.72960
O2795       O  0.71269444  0.43780093  0.43854316    -0.52230
O2796       O  0.79321851  0.45363949  0.41645429    -0.96900
O2797       O  0.84375862  0.49056146  0.44194607    -0.54120
O2798       O  0.81950985  0.45933034  0.47313158    -0.73480
C2799       C  0.81939062  0.45503506  0.49998406     0.98860
O2800       O  0.74168899  0.47399585  0.56321576    -0.62300
O2801       O  0.76928974  0.55417416  0.50510434    -0.57100
O2802       O  0.78691498  0.49953311  0.55031452    -0.93790
O2803       O  0.79198021  0.52679573  0.53105149    -0.92210
O2804       O  0.69125933  0.54134888  0.51531254    -0.92570
O2805       O  0.67685202  0.51102839  0.54274573    -0.91350
C2806       C  0.79490724  0.51562411  0.55155119     1.17710
H2807       H  0.72002521  0.53914249  0.46044483     0.33650
H2808       H  0.69769025  0.47788872  0.51276008     0.44500
H2809       H  0.81257331  0.49744772  0.49567504     0.38030
H2810       H  0.74685132  0.47674251  0.40537649     0.34510
H2811       H  0.63169856  0.51043946  0.50471371     0.26300
H2812       H  0.69372411  0.43497014  0.42986285     0.32230
H2813       H  0.81343363  0.44950422  0.41711931     0.38140
H2814       H  0.67063250  0.54469247  0.51553066     0.32600
H2815       H  0.78507915  0.56151088  0.49720996     0.31480
H2816       H  0.83251933  0.53750888  0.48895277     0.33160
H2817       H  0.85457124  0.48023486  0.43512983     0.32130
H2818       H  0.69256528  0.50460423  0.55251756     0.36130
H2819       H  0.74339240  0.48473830  0.57491407     0.28860
H2820       H  0.72499593  0.52004245  0.35939833     0.33090
H2821       H  0.82450761  0.47818073  0.38994763     0.35940
H2822       H  0.75140389  0.55924288  0.49702311     0.28550
H2823       H  0.72062894  0.47250634  0.56048610     0.41430
H2824       H  0.64977928  0.47109510  0.43688838     0.31480
H2825       H  0.63711970  0.49786336  0.47885967     0.39100
H2826       H  0.84962545  0.49180600  0.46228645     0.30950
H2827       H  0.72640579  0.43788937  0.42222003     0.31010
H2828       H  0.75013495  0.50644921  0.36305609     0.31280
Zr2829     Zr  0.76433077  0.38943020  0.61762798     2.17510
O2830       O  0.80449646  0.39042139  0.58395945    -0.51080
O2831       O  0.78434255  0.41206741  0.64872494    -0.74280
O2832       O  0.76383090  0.41343194  0.58355876    -0.81070
O2833       O  0.77864461  0.34162291  0.62479221    -0.82810
O2834       O  0.72178845  0.42621903  0.59419902    -0.78440
O2835       O  0.80213784  0.36761471  0.62403641    -0.90070
O2836       O  0.75050257  0.41622930  0.68333752    -0.76040
O2837       O  0.72485790  0.40623963  0.63452267    -0.85530
O2838       O  0.75158090  0.37640625  0.66296719    -0.85220
O2839       O  0.72794695  0.38690937  0.58074737    -0.71970
O2840       O  0.74767265  0.36036776  0.60960656    -0.84110
Zr2841     Zr  0.66030527  0.36129565  0.63269737     2.26420
Zr2842     Zr  0.68770882  0.40288103  0.59926246     2.06270
Zr2843     Zr  0.73522026  0.34672686  0.65389853     2.10050
Zr2844     Zr  0.71223391  0.39367656  0.67912369     1.78760
O2845       O  0.75390233  0.31714500  0.65868184    -0.92910
O2846       O  0.68578774  0.42037965  0.68944904    -0.40720
O2847       O  0.69586818  0.36401877  0.67039019    -0.77350
O2848       O  0.67349330  0.39090836  0.64468132    -0.96040
O2849       O  0.67429543  0.37383033  0.58829000    -0.89340
O2850       O  0.69990110  0.34408844  0.61672291    -0.92190
C2851       C  0.77426032  0.42040380  0.67045574     1.01570
C2852       C  0.80013511  0.35136591  0.61744313     1.14500
C2853       C  0.74439253  0.42484510  0.57891020     1.05280
O2854       O  0.66646763  0.43181605  0.59503745    -0.94340
O2855       O  0.63621399  0.40520988  0.60298594    -0.90080
O2856       O  0.62083027  0.37750669  0.61220485    -0.83230
C2857       C  0.61683177  0.39336018  0.60447031     1.11920
O2858       O  0.76030539  0.35413651  0.54710307    -0.96310
Zr2859     Zr  0.71429597  0.35735846  0.57209278     1.88940
O2860       O  0.64462557  0.34074276  0.59524970    -0.72960
O2861       O  0.67864655  0.40081176  0.54770009    -0.52230
O2862       O  0.71195298  0.36770249  0.52259441    -0.96900
O2863       O  0.71949778  0.32634520  0.56104531    -0.54120
O2864       O  0.66588503  0.35247978  0.55655819    -0.73480
C2865       C  0.64970101  0.34103376  0.56811575     0.98860
O2866       O  0.61885303  0.36126628  0.66506898    -0.62300
O2867       O  0.75785279  0.34827835  0.70112858    -0.57100
O2868       O  0.65332288  0.33411139  0.65742221    -0.93790
O2869       O  0.69794328  0.32515808  0.67118183    -0.92210
O2870       O  0.73653505  0.38535968  0.72346001    -0.92570
O2871       O  0.67949826  0.39171126  0.71992816    -0.91350
C2872       C  0.67012238  0.32316489  0.66964318     1.17710
H2873       H  0.76777815  0.37697943  0.67600897     0.33650
H2874       H  0.65684833  0.39696114  0.65212848     0.44500
H2875       H  0.69452864  0.33198730  0.61418389     0.38030
H2876       H  0.73453399  0.39147698  0.56254405     0.34510
H2877       H  0.69775850  0.42664339  0.70377476     0.26300
H2878       H  0.66502294  0.41040204  0.54342360     0.32230
H2879       H  0.70647345  0.35727195  0.51124443     0.38140
H2880       H  0.74077643  0.39656101  0.73323816     0.32600
H2881       H  0.75076867  0.33776286  0.71141085     0.31480
H2882       H  0.77241350  0.31836481  0.66914019     0.33160
H2883       H  0.71737029  0.32564293  0.53990889     0.32130
H2884       H  0.66202483  0.38590266  0.71215554     0.36130
H2885       H  0.62700567  0.35880397  0.68432256     0.28860
H2886       H  0.81291029  0.40233203  0.58488507     0.33090
H2887       H  0.75658681  0.34630705  0.53059706     0.35940
H2888       H  0.77856234  0.34596892  0.69756285     0.28550
H2889       H  0.61277090  0.37362827  0.66630716     0.41430
H2890       H  0.66695577  0.43657957  0.61480507     0.31480
H2891       H  0.68759259  0.42745561  0.67169578     0.39100
H2892       H  0.70189472  0.32055078  0.56851159     0.30950
H2893       H  0.69676970  0.40419809  0.53791293     0.31010
H2894       H  0.79598377  0.38938436  0.56450551     0.31280
Zr2895     Zr  0.63435764  0.64084534  0.80742062     2.17510
O2896       O  0.67761024  0.65258924  0.82978592    -0.51080
O2897       O  0.65031954  0.66316960  0.77321194    -0.74280
O2898       O  0.67319101  0.61965821  0.80019473    -0.81070
O2899       O  0.59705812  0.67670971  0.83368628    -0.82810
O2900       O  0.65411435  0.59232770  0.79851448    -0.78440
O2901       O  0.63315406  0.65993852  0.84907234    -0.90070
O2902       O  0.62004170  0.66310644  0.73481203    -0.76040
O2903       O  0.62102045  0.62554824  0.76446207    -0.85530
O2904       O  0.59525826  0.65708407  0.78745128    -0.85220
O2905       O  0.61897469  0.61222713  0.82302210    -0.71970
O2906       O  0.59758530  0.64064311  0.84370787    -0.84110
Zr2907     Zr  0.53001769  0.61302820  0.79674397     2.26420
Zr2908     Zr  0.60531587  0.59679341  0.77939596     2.06270
Zr2909     Zr  0.55876503  0.65646312  0.82313293     2.10050
Zr2910     Zr  0.58167585  0.64194726  0.74535281     1.78760
O2911       O  0.54657855  0.65974737  0.87376177    -0.92910
O2912       O  0.60288443  0.63163368  0.70065860    -0.40720
O2913       O  0.54382185  0.64166457  0.78044918    -0.77350
O2914       O  0.56613699  0.61314058  0.75943704    -0.96040
O2915       O  0.56912868  0.59673254  0.81613783    -0.89340
O2916       O  0.54380564  0.62847828  0.83899832    -0.92190
C2917       C  0.64178070  0.66917290  0.74884283     1.01570
C2918       C  0.61655691  0.67311066  0.85198452     1.14500
C2919       C  0.67385722  0.60326639  0.80605361     1.05280
O2920       O  0.62736959  0.59535851  0.73198791    -0.94340
O2921       O  0.56834479  0.57564299  0.76066678    -0.90080
O2922       O  0.52368616  0.58568808  0.77217673    -0.83230
C2923       C  0.54038980  0.57432482  0.76088141     1.11920
O2924       O  0.62405119  0.61326392  0.89114754    -0.96310
Zr2925     Zr  0.58289457  0.61231625  0.85834831     1.88940
O2926       O  0.51773842  0.59113213  0.83334447    -0.72960
O2927       O  0.61627434  0.56580861  0.78435789    -0.52230
O2928       O  0.59386053  0.58148130  0.86552229    -0.96900
O2929       O  0.57631876  0.62247784  0.90749620    -0.54120
O2930       O  0.53621734  0.60310538  0.87312289    -0.73480
C2931       C  0.52307344  0.59083523  0.86038625     0.98860
O2932       O  0.98698621  0.61144779  0.76637134    -0.62300
O2933       O  0.54069367  0.68590663  0.81500151    -0.57100
O2934       O  0.99137859  0.63144923  0.81396805    -0.93790
O2935       O  0.00810673  0.65944435  0.81614447    -0.92210
O2936       O  0.55559367  0.66867300  0.73415348    -0.92570
O2937       O  0.54600743  0.63790335  0.70747463    -0.91350
C2938       C  0.98821500  0.64795720  0.81740573     1.17710
H2939       H  0.59928290  0.66921793  0.78341185     0.33650
H2940       H  0.55876078  0.60736929  0.74250575     0.44500
H2941       H  0.52812317  0.63004322  0.85240064     0.38030
H2942       H  0.63303098  0.60690199  0.83539507     0.34510
H2943       H  0.60244411  0.64189395  0.68766521     0.26300
H2944       H  0.63436430  0.56401884  0.77343546     0.32230
H2945       H  0.59022589  0.57928893  0.88617524     0.38140
H2946       H  0.56572163  0.67366486  0.71727446     0.32600
H2947       H  0.54273993  0.69195279  0.83367483     0.31480
H2948       H  0.52732437  0.66531188  0.87374149     0.33160
H2949       H  0.57097037  0.61190495  0.91862534     0.32130
H2950       H  0.52819290  0.63432622  0.71772435     0.36130
H2951       H  0.98076270  0.62367943  0.76342730     0.28860
H2952       H  0.69142633  0.65424761  0.81380940     0.33090
H2953       H  0.62767746  0.60103651  0.89702804     0.35940
H2954       H  0.55514846  0.69155778  0.80231548     0.28550
H2955       H  0.49403705  0.60799269  0.74710524     0.41430
H2956       H  0.64836377  0.59641779  0.73565439     0.31480
H2957       H  0.62361227  0.63002226  0.70507908     0.39100
H2958       H  0.55846238  0.62953008  0.90694760     0.30950
H2959       H  0.62171170  0.56419807  0.80477048     0.31010
H2960       H  0.68518412  0.64294971  0.84177115     0.31280
Zr2961     Zr  0.63009796  0.38669982  0.05583071     2.17510
O2962       O  0.59048308  0.38445391  0.09021197    -0.51080
O2963       O  0.61210908  0.41035600  0.02502416    -0.74280
O2964       O  0.62694233  0.41083708  0.08941655    -0.81070
O2965       O  0.61316422  0.34025932  0.04766099    -0.82810
O2966       O  0.67275343  0.41577070  0.10449079    -0.78440
O2967       O  0.59123198  0.36647099  0.04480499    -0.90070
O2968       O  0.64538113  0.41399346  0.98955810    -0.76040
O2969       O  0.66909178  0.40411351  0.03904684    -0.85530
O2970       O  0.64321536  0.37406391  0.01044775    -0.85220
O2971       O  0.66622666  0.38337869  0.09246812    -0.71970
O2972       O  0.64550310  0.35727868  0.06400722    -0.84110
Zr2973     Zr  0.73422007  0.35945791  0.03993208     2.26420
Zr2974     Zr  0.70569630  0.40060571  0.07428116     2.06270
Zr2975     Zr  0.65843279  0.34425974  0.01947201     2.10050
Zr2976     Zr  0.68275768  0.39155698  0.99446646     1.78760
O2977       O  0.63797146  0.31515136  0.01293260    -0.92910
O2978       O  0.70887990  0.41844947  0.98328449    -0.40720
O2979       O  0.69797540  0.36181106  0.00293506    -0.77350
O2980       O  0.72106412  0.38918405  0.02902416    -0.96040
O2981       O  0.71931601  0.37143393  0.08453008    -0.89340
O2982       O  0.69481697  0.34144024  0.05572282    -0.92190
C2983       C  0.62220603  0.41847617  0.00286756     1.01570
C2984       C  0.59164545  0.35047822  0.05290930     1.14500
C2985       C  0.64550227  0.41781469  0.10617327     1.05280
O2986       O  0.72440736  0.42578313  0.04811329    -0.94340
O2987       O  0.75102151  0.39129507  0.09246495    -0.90080
O2988       O  0.77245473  0.37901086  0.05448638    -0.83230
C2989       C  0.77257785  0.38917417  0.07615799     1.11920
O2990       O  0.63562631  0.35214412  0.12807563    -0.96310
Zr2991     Zr  0.68021135  0.35394922  0.10040232     1.88940
O2992       O  0.75227407  0.34034036  0.07807208    -0.72960
O2993       O  0.72984950  0.41998524  0.10848407    -0.52230
O2994       O  0.68289714  0.35891539  0.15202896    -0.96900
O2995       O  0.67576727  0.32238920  0.10675003    -0.54120
O2996       O  0.72985511  0.35318599  0.11449913    -0.73480
C2997       C  0.74616648  0.34129788  0.10486365     0.98860
O2998       O  0.77475451  0.35783866  0.00636930    -0.62300
O2999       O  0.63795353  0.34646051  0.97135028    -0.57100
O3000       O  0.74056836  0.33224606  0.01594651    -0.93790
O3001       O  0.69588402  0.32251627  0.00329099    -0.92210
O3002       O  0.65914755  0.38425778  0.94930542    -0.92570
O3003       O  0.71757457  0.38845703  0.95560380    -0.91350
C3004       C  0.72382166  0.32092332  0.00454869     1.17710
H3005       H  0.62714549  0.37473866  0.99726843     0.33650
H3006       H  0.73765857  0.39558238  0.02200561     0.44500
H3007       H  0.70056674  0.32942267  0.05820707     0.38030
H3008       H  0.65919231  0.38662195  0.11120097     0.34510
H3009       H  0.70203121  0.42183652  0.96390869     0.26300
H3010       H  0.72094348  0.43164456  0.10620590     0.32230
H3011       H  0.68170120  0.34713946  0.16081928     0.38140
H3012       H  0.65866878  0.39540008  0.93846284     0.32600
H3013       H  0.64487723  0.33590616  0.96124547     0.31480
H3014       H  0.61890219  0.31702257  0.00384524     0.33160
H3015       H  0.66899040  0.32086245  0.12677759     0.32130
H3016       H  0.73537169  0.38427604  0.96514395     0.36130
H3017       H  0.76586883  0.35567155  0.98733685     0.28860
H3018       H  0.58313313  0.39630308  0.09427708     0.33090
H3019       H  0.62281052  0.34444750  0.11664440     0.35940
H3020       H  0.61698709  0.34444909  0.97399635     0.28550
H3021       H  0.78246169  0.36987732  0.00462490     0.41430
H3022       H  0.70981163  0.43500807  0.05116669     0.31480
H3023       H  0.70040432  0.42733086  0.99616335     0.39100
H3024       H  0.69577012  0.31791737  0.10696604     0.30950
H3025       H  0.72373702  0.41591648  0.12777727     0.31010
H3026       H  0.59962703  0.38065685  0.10840051     0.31280
Zr3027     Zr  0.99652512  0.38880440  0.11379104     2.17510
O3028       O  0.53402454  0.38573672  0.07734644    -0.51080
O3029       O  0.01915432  0.41035411  0.14583677    -0.74280
O3030       O  0.99986972  0.41441407  0.08269188    -0.81070
O3031       O  0.50861505  0.34131791  0.11844664    -0.82810
O3032       O  0.95436091  0.42424745  0.07442631    -0.78440
O3033       O  0.53320921  0.36681277  0.12232449    -0.90070
O3034       O  0.98555769  0.41458714  0.18064730    -0.76040
O3035       O  0.95877959  0.40660454  0.13151215    -0.85530
O3036       O  0.98208376  0.37466857  0.15786415    -0.85220
O3037       O  0.96003481  0.38805855  0.07720892    -0.71970
O3038       O  0.97809349  0.36022356  0.10362324    -0.84110
Zr3039     Zr  0.89066588  0.36287698  0.12596310     2.26420
Zr3040     Zr  0.92121703  0.40483773  0.09656509     2.06270
Zr3041     Zr  0.96351088  0.34559876  0.14659113     2.10050
Zr3042     Zr  0.94488947  0.39317906  0.17505168     1.78760
O3043       O  0.98047683  0.31555516  0.14871147    -0.92910
O3044       O  0.91997284  0.42038061  0.18569184    -0.40720
O3045       O  0.92616117  0.36406115  0.16416305    -0.77350
O3046       O  0.90602196  0.39173002  0.14053170    -0.96040
O3047       O  0.90577867  0.37641551  0.08279338    -0.89340
O3048       O  0.92878637  0.34497317  0.10891837    -0.92190
C3049       C  0.00985228  0.41845915  0.16822577     1.01570
C3050       C  0.53106510  0.35099343  0.11354736     1.14500
C3051       C  0.98155497  0.42443756  0.07033525     1.05280
O3052       O  0.90834344  0.43412844  0.11223370    -0.94340
O3053       O  0.87005042  0.40827227  0.09653058    -0.90080
O3054       O  0.85340797  0.38090581  0.10646279    -0.83230
C3055       C  0.85021939  0.39678971  0.09873734     1.11920
O3056       O  0.98969045  0.35540477  0.03915164    -0.96310
Zr3057     Zr  0.94470943  0.35925029  0.06567894     1.88940
O3058       O  0.87496671  0.34263400  0.08745294    -0.72960
O3059       O  0.90458050  0.40923146  0.04739644    -0.52230
O3060       O  0.94143137  0.37230377  0.01796703    -0.96900
O3061       O  0.95108403  0.32855484  0.05295545    -0.54120
O3062       O  0.89722057  0.35349608  0.04857691    -0.73480
C3063       C  0.88087249  0.34226952  0.06040237     0.98860
O3064       O  0.84881202  0.36372645  0.15784540    -0.62300
O3065       O  0.98381601  0.34301904  0.19473951    -0.57100
O3066       O  0.87866864  0.33562617  0.14833855    -0.93790
O3067       O  0.92246464  0.32468943  0.16061978    -0.92210
O3068       O  0.96772509  0.38505766  0.22022127    -0.92570
O3069       O  0.91105075  0.39081999  0.21492838    -0.91350
C3070       C  0.89427097  0.32362023  0.15926335     1.17710
H3071       H  0.99811934  0.37435037  0.17111302     0.33650
H3072       H  0.88968097  0.39799709  0.14816794     0.44500
H3073       H  0.92271678  0.33308210  0.10544430     0.38030
H3074       H  0.96699889  0.39286474  0.05931847     0.34510
H3075       H  0.92977865  0.42499110  0.20301889     0.26300
H3076       H  0.90297907  0.42205976  0.04515806     0.32230
H3077       H  0.93487512  0.36268086  0.00531798     0.38140
H3078       H  0.97025460  0.39622288  0.23066175     0.32600
H3079       H  0.00429323  0.34661454  0.19291095     0.31480
H3080       H  0.99871279  0.31605986  0.15979162     0.33160
H3081       H  0.94867825  0.32814975  0.03183219     0.32130
H3082       H  0.89283586  0.38672239  0.20599932     0.36130
H3083       H  0.85648818  0.36078505  0.17711302     0.28860
H3084       H  0.53995023  0.39746369  0.07055438     0.33090
H3085       H  0.98436883  0.35038149  0.02028592     0.35940
H3086       H  0.97456051  0.35237291  0.20605791     0.28550
H3087       H  0.84368983  0.37623197  0.15948332     0.41430
H3088       H  0.92669151  0.43944281  0.11886851     0.31480
H3089       H  0.92590008  0.42845648  0.17012185     0.39100
H3090       H  0.93395127  0.32228271  0.06045605     0.30950
H3091       H  0.92111751  0.40592708  0.03511767     0.31010
H3092       H  0.52406827  0.38045674  0.06065504     0.31280
Zr3093     Zr  0.87815833  0.63852415  0.31079486     2.17510
O3094       O  0.91547736  0.63833563  0.34773504    -0.51080
O3095       O  0.89978423  0.65945451  0.27770164    -0.74280
O3096       O  0.91751294  0.61883335  0.29838401    -0.81070
O3097       O  0.83342706  0.67732141  0.32844929    -0.82810
O3098       O  0.90029291  0.59103416  0.29846394    -0.78440
O3099       O  0.87482595  0.66411775  0.34180428    -0.90070
O3100       O  0.86990701  0.65974318  0.23886139    -0.76040
O3101       O  0.86660279  0.62271238  0.26782225    -0.85530
O3102       O  0.83957152  0.65425850  0.28897180    -0.85220
O3103       O  0.86344081  0.60965358  0.32502880    -0.71970
O3104       O  0.84040732  0.63938670  0.34583921    -0.84110
Zr3105     Zr  0.77532726  0.60930969  0.29751216     2.26420
Zr3106     Zr  0.85052141  0.59386980  0.28154681     2.06270
Zr3107     Zr  0.80086049  0.65338751  0.32288583     2.10050
Zr3108     Zr  0.82874204  0.63900596  0.24666447     1.78760
O3109       O  0.79093124  0.65607334  0.37409058    -0.92910
O3110       O  0.85252552  0.62806014  0.20368918    -0.40720
O3111       O  0.78872685  0.63797549  0.27999635    -0.77350
O3112       O  0.81205899  0.61009842  0.26059966    -0.96040
O3113       O  0.81465295  0.59416711  0.31842580    -0.89340
O3114       O  0.78762704  0.62516802  0.33974856    -0.92190
C3115       C  0.89235543  0.66529900  0.25286018     1.01570
C3116       C  0.85666172  0.67669417  0.34280650     1.14500
C3117       C  0.91947928  0.60256861  0.30484633     1.05280
O3118       O  0.87083072  0.59182982  0.23344953    -0.94340
O3119       O  0.81403464  0.57190555  0.26361674    -0.90080
O3120       O  0.76903548  0.58139133  0.27482817    -0.83230
C3121       C  0.78609351  0.57011275  0.26389316     1.11920
O3122       O  0.86465023  0.61928011  0.39481419    -0.96310
Zr3123     Zr  0.82760587  0.61070944  0.36024628     1.88940
O3124       O  0.75856546  0.58883496  0.33525592    -0.72960
O3125       O  0.86323657  0.56333154  0.28908849    -0.52230
O3126       O  0.85305055  0.58460923  0.37623296    -0.96900
O3127       O  0.80607913  0.62033113  0.40540298    -0.54120
O3128       O  0.79029193  0.59121465  0.37210399    -0.73480
C3129       C  0.76792789  0.58470961  0.36048187     0.98860
O3130       O  0.73420896  0.60833584  0.26473238    -0.62300
O3131       O  0.77575484  0.68133581  0.32159661    -0.57100
O3132       O  0.73609021  0.62651781  0.31587331    -0.93790
O3133       O  0.75064244  0.65460871  0.31116820    -0.92210
O3134       O  0.80418763  0.66590210  0.23334414    -0.92570
O3135       O  0.79580580  0.63537090  0.20631829    -0.91350
C3136       C  0.73220166  0.64298289  0.31801648     1.17710
H3137       H  0.84454173  0.66611827  0.28391178     0.33650
H3138       H  0.80508734  0.60418940  0.24362066     0.44500
H3139       H  0.77206237  0.62557139  0.35351869     0.38030
H3140       H  0.87815848  0.60424926  0.33656358     0.34510
H3141       H  0.85293400  0.63815369  0.19034152     0.26300
H3142       H  0.88074932  0.56140702  0.27732846     0.32230
H3143       H  0.84301481  0.58096833  0.39406794     0.38140
H3144       H  0.81659779  0.67125199  0.21837221     0.32600
H3145       H  0.78100177  0.68734469  0.33970224     0.31480
H3146       H  0.76974658  0.65760395  0.37525804     0.33160
H3147       H  0.80843064  0.61032642  0.41871918     0.32130
H3148       H  0.77760798  0.63114018  0.21513628     0.36130
H3149       H  0.72843597  0.62067168  0.26203573     0.28860
H3150       H  0.91552346  0.62620421  0.35506747     0.33090
H3151       H  0.86251610  0.61122130  0.41135296     0.35940
H3152       H  0.78527707  0.68821264  0.30621117     0.28550
H3153       H  0.74248132  0.60505743  0.24588661     0.41430
H3154       H  0.89187882  0.59338698  0.23623735     0.31480
H3155       H  0.87294960  0.62648862  0.20937344     0.39100
H3156       H  0.78502378  0.62090411  0.40193671     0.30950
H3157       H  0.86993009  0.56262070  0.30926654     0.31010
H3158       H  0.90830364  0.64508331  0.36434890     0.31280
Zr3159     Zr  0.51694494  0.63718297  0.36624711     2.17510
O3160       O  0.97669483  0.64520706  0.33582815    -0.51080
O3161       O  0.49865597  0.65893219  0.39907665    -0.74280
O3162       O  0.97701500  0.61761309  0.37770297    -0.81070
O3163       O  0.56029269  0.67342506  0.33850890    -0.82810
O3164       O  0.99286400  0.58976665  0.37764673    -0.78440
O3165       O  0.51939946  0.65854565  0.32804868    -0.90070
O3166       O  0.52789595  0.65945152  0.43822221    -0.76040
O3167       O  0.52763799  0.62207194  0.40994212    -0.85530
O3168       O  0.55575159  0.65334825  0.38713931    -0.85220
O3169       O  0.53031177  0.60818014  0.35196453    -0.71970
O3170       O  0.55490486  0.63680601  0.33150813    -0.84110
Zr3171     Zr  0.61842821  0.60766916  0.38099768     2.26420
Zr3172     Zr  0.54192200  0.59297027  0.39640380     2.06270
Zr3173     Zr  0.59421342  0.65172909  0.35346442     2.10050
Zr3174     Zr  0.56669692  0.63820505  0.43011301     1.78760
O3175       O  0.61239658  0.65456528  0.30451361    -0.92910
O3176       O  0.54317847  0.62823442  0.47401732    -0.40720
O3177       O  0.60612517  0.63666475  0.39682315    -0.77350
O3178       O  0.58121108  0.60896424  0.41720637    -0.96040
O3179       O  0.57890355  0.59218809  0.36047742    -0.89340
O3180       O  0.60709403  0.62338808  0.33811221    -0.92190
C3181       C  0.50622103  0.66504457  0.42358032     1.01570
C3182       C  0.53740262  0.67098777  0.32380935     1.14500
C3183       C  0.97449258  0.60153032  0.37062128     1.05280
O3184       O  0.51893033  0.59151060  0.44339241    -0.94340
O3185       O  0.57642937  0.57115290  0.41661916    -0.90080
O3186       O  0.62198104  0.58005638  0.40545970    -0.83230
C3187       C  0.60419981  0.56913756  0.41666584     1.11920
O3188       O  0.52690046  0.60973089  0.28435032    -0.96310
Zr3189     Zr  0.56744300  0.60810241  0.31775010     1.88940
O3190       O  0.63146027  0.58650913  0.34347366    -0.72960
O3191       O  0.52950366  0.56228878  0.38946460    -0.52230
O3192       O  0.55604561  0.57756194  0.30813313    -0.96900
O3193       O  0.57531893  0.61904946  0.26916328    -0.54120
O3194       O  0.61343008  0.59828077  0.30306442    -0.73480
C3195       C  0.62738615  0.58651848  0.31613459     0.98860
O3196       O  0.66022670  0.60537188  0.41279439    -0.62300
O3197       O  0.61556052  0.68075463  0.35816178    -0.57100
O3198       O  0.65827599  0.62488296  0.36305925    -0.93790
O3199       O  0.64304218  0.65247055  0.37010335    -0.92210
O3200       O  0.59303855  0.66488449  0.44174665    -0.92570
O3201       O  0.60011001  0.63446804  0.47002399    -0.91350
C3202       C  0.66173218  0.64145691  0.36192870     1.17710
H3203       H  0.55157448  0.66552365  0.39044083     0.33650
H3204       H  0.58771328  0.60317389  0.43447895     0.44500
H3205       H  0.62314371  0.62451758  0.32501118     0.38030
H3206       H  0.51576730  0.60290094  0.34002091     0.34510
H3207       H  0.54298082  0.63862381  0.48666928     0.26300
H3208       H  0.51145604  0.56040598  0.40047100     0.32230
H3209       H  0.55990512  0.57608038  0.28735943     0.38140
H3210       H  0.58181708  0.67031909  0.45744842     0.32600
H3211       H  0.61364826  0.68621287  0.33894599     0.31480
H3212       H  0.63300522  0.65776518  0.30678080     0.33160
H3213       H  0.58056892  0.60863276  0.25773247     0.32130
H3214       H  0.61800660  0.63004367  0.46101461     0.36130
H3215       H  0.66758386  0.61745436  0.41508541     0.28860
H3216       H  0.96343520  0.65137287  0.34896546     0.33090
H3217       H  0.51573413  0.59880719  0.28723270     0.35940
H3218       H  0.60211104  0.68731699  0.37061670     0.28550
H3219       H  0.65213547  0.60254122  0.43195246     0.41430
H3220       H  0.49836600  0.59416092  0.43963382     0.31480
H3221       H  0.52269587  0.62647959  0.46861599     0.39100
H3222       H  0.59337579  0.62598115  0.27034694     0.30950
H3223       H  0.52375376  0.56132318  0.36902981     0.31010
H3224       H  0.96700974  0.63412302  0.33060512     0.31280
Zr3225     Zr  0.88981271  0.38534945  0.55742045     2.17510
O3226       O  0.85579585  0.38028411  0.59651876    -0.51080
O3227       O  0.86749990  0.40785028  0.52761040    -0.74280
O3228       O  0.88536500  0.41097681  0.58778489    -0.81070
O3229       O  0.87645301  0.33832511  0.54832404    -0.82810
O3230       O  0.93133726  0.41841381  0.60022855    -0.78440
O3231       O  0.85367973  0.36408346  0.54299958    -0.90070
O3232       O  0.90181314  0.41298642  0.49370547    -0.76040
O3233       O  0.92839116  0.40339477  0.54148662    -0.85530
O3234       O  0.90468349  0.37218763  0.51285049    -0.85220
O3235       O  0.92565639  0.38376284  0.59426717    -0.71970
O3236       O  0.90695560  0.35643809  0.56614859    -0.84110
Zr3237     Zr  0.99582477  0.35941364  0.54603105     2.26420
Zr3238     Zr  0.96548941  0.40059436  0.57664507     2.06270
Zr3239     Zr  0.92263104  0.34288451  0.52271311     2.10050
Zr3240     Zr  0.94223389  0.39106306  0.49738304     1.78760
O3241       O  0.90545489  0.31278695  0.52076599    -0.92910
O3242       O  0.96793611  0.41821257  0.48723423    -0.40720
O3243       O  0.96074372  0.36175632  0.50732734    -0.77350
O3244       O  0.98101958  0.38853734  0.53221813    -0.96040
O3245       O  0.97967791  0.37183549  0.58946704    -0.89340
O3246       O  0.95678598  0.34140848  0.56112480    -0.92190
C3247       C  0.87740698  0.41664812  0.50615788     1.01570
C3248       C  0.85460216  0.34838745  0.55248043     1.14500
C3249       C  0.90398126  0.41966482  0.60235676     1.05280
O3250       O  0.97833061  0.43001459  0.56110526    -0.94340
O3251       O  0.51682171  0.40351390  0.57926182    -0.90080
O3252       O  0.53427857  0.37697710  0.56611643    -0.83230
C3253       C  0.53705225  0.39247205  0.57608511     1.11920
O3254       O  0.89775024  0.35234463  0.63611295    -0.96310
Zr3255     Zr  0.93949969  0.35474806  0.60436953     1.88940
O3256       O  0.51415587  0.34032576  0.58535693    -0.72960
O3257       O  0.98220321  0.40540863  0.62566745    -0.52230
O3258       O  0.94947587  0.36820668  0.65079996    -0.96900
O3259       O  0.92256512  0.32505229  0.61383622    -0.54120
O3260       O  0.98173107  0.34176258  0.62169567    -0.73480
C3261       C  0.50535405  0.33655599  0.61102655     0.98860
O3262       O  0.53680186  0.36041124  0.51310555    -0.62300
O3263       O  0.90318181  0.34109244  0.47412544    -0.57100
O3264       O  0.00612837  0.33199965  0.52340962    -0.93790
O3265       O  0.96255342  0.32199282  0.50811395    -0.92210
O3266       O  0.91820423  0.38369664  0.45243798    -0.92570
O3267       O  0.97477303  0.38921724  0.45643300    -0.91350
C3268       C  0.99048883  0.32054475  0.51082420     1.17710
H3269       H  0.88891028  0.37217058  0.49928396     0.33650
H3270       H  0.49758225  0.39496263  0.52519219     0.44500
H3271       H  0.96282752  0.32952828  0.56461393     0.38030
H3272       H  0.91836230  0.38809534  0.61229848     0.34510
H3273       H  0.95778558  0.42324948  0.47044232     0.26300
H3274       H  0.48346316  0.41826831  0.62769674     0.32230
H3275       H  0.95461565  0.35842306  0.66375548     0.38140
H3276       H  0.91437989  0.39509189  0.44310201     0.32600
H3277       H  0.88284651  0.34490801  0.47566340     0.31480
H3278       H  0.88898100  0.31294882  0.50720819     0.33160
H3279       H  0.93722296  0.31985738  0.62672544     0.32130
H3280       H  0.49278612  0.38428994  0.46447025     0.36130
H3281       H  0.52848900  0.35773715  0.49399622     0.28860
H3282       H  0.85842530  0.38934257  0.61141516     0.33090
H3283       H  0.90471878  0.34656567  0.65384714     0.35940
H3284       H  0.91309127  0.35047517  0.46325263     0.28550
H3285       H  0.54219097  0.37291953  0.51172528     0.41430
H3286       H  0.95968885  0.43566452  0.55655425     0.31480
H3287       H  0.96280708  0.42602311  0.50334826     0.39100
H3288       H  0.92476139  0.31871736  0.59545465     0.30950
H3289       H  0.96582996  0.40188411  0.63808302     0.31010
H3290       H  0.86310059  0.36961357  0.60592806     0.31280
Zr3291     Zr  0.76307893  0.63956407  0.86219833     2.17510
O3292       O  0.73130397  0.63379236  0.82146398    -0.51080
O3293       O  0.74065638  0.66178858  0.89305345    -0.74280
O3294       O  0.72736443  0.61909791  0.88058296    -0.81070
O3295       O  0.80138770  0.67059797  0.81625439    -0.82810
O3296       O  0.74673374  0.59213080  0.87992383    -0.78440
O3297       O  0.75588747  0.66475901  0.83196856    -0.90070
O3298       O  0.77288135  0.66551358  0.92951732    -0.76040
O3299       O  0.77819655  0.62630833  0.90633133    -0.85530
O3300       O  0.80037459  0.65828444  0.87952387    -0.85220
O3301       O  0.78148861  0.61108717  0.85037040    -0.71970
O3302       O  0.80012591  0.64012377  0.82654696    -0.84110
Zr3303     Zr  0.86979978  0.61611085  0.87496108     2.26420
Zr3304     Zr  0.79689997  0.59771883  0.89497703     2.06270
Zr3305     Zr  0.83796079  0.65772325  0.84519476     2.10050
Zr3306     Zr  0.81479192  0.64551056  0.92335778     1.78760
O3307       O  0.85616928  0.66737639  0.79863627    -0.92910
O3308       O  0.79333979  0.63625232  0.96869552    -0.40720
O3309       O  0.85378131  0.64478595  0.88903420    -0.77350
O3310       O  0.83394747  0.61670399  0.91270412    -0.96040
O3311       O  0.83209689  0.59797206  0.85735100    -0.89340
O3312       O  0.85446414  0.62976615  0.83176598    -0.92190
C3313       C  0.74927731  0.66955984  0.91614320     1.01570
C3314       C  0.77398005  0.67223648  0.81514557     1.14500
C3315       C  0.72661680  0.60296349  0.87337893     1.05280
O3316       O  0.77938200  0.59600137  0.94420568    -0.94340
O3317       O  0.83642866  0.57765097  0.91157651    -0.90080
O3318       O  0.88009680  0.58900484  0.89911307    -0.83230
C3319       C  0.86445074  0.57702206  0.91048809     1.11920
O3320       O  0.77525340  0.60829595  0.78195649    -0.96310
Zr3321     Zr  0.81655715  0.61192925  0.81404219     1.88940
O3322       O  0.88440549  0.59448941  0.83853104    -0.72960
O3323       O  0.78683668  0.56654212  0.89067238    -0.52230
O3324       O  0.80937149  0.58071245  0.80640471    -0.96900
O3325       O  0.82131950  0.62469110  0.76623343    -0.54120
O3326       O  0.86321915  0.60407635  0.79814340    -0.73480
C3327       C  0.87923373  0.59341042  0.81142359     0.98860
O3328       O  0.91202260  0.61759157  0.90629264    -0.62300
O3329       O  0.84365571  0.68732199  0.86354835    -0.57100
O3330       O  0.90751113  0.63416810  0.85495727    -0.93790
O3331       O  0.88934831  0.66086388  0.84314543    -0.92210
O3332       O  0.83822714  0.67356195  0.93200008    -0.92570
O3333       O  0.84912377  0.64479718  0.96296490    -0.91350
C3334       C  0.90976285  0.64985620  0.84560811     1.17710
H3335       H  0.79423126  0.67025521  0.88146094     0.33650
H3336       H  0.84203516  0.61183780  0.93008831     0.44500
H3337       H  0.86959235  0.63141977  0.81775707     0.38030
H3338       H  0.76741512  0.60423711  0.84013497     0.34510
H3339       H  0.79170565  0.64712116  0.98008419     0.26300
H3340       H  0.76977088  0.56432692  0.90298824     0.32230
H3341       H  0.81654393  0.57849413  0.78672342     0.38140
H3342       H  0.82602984  0.67933312  0.94661315     0.32600
H3343       H  0.85944310  0.69247424  0.85190731     0.31480
H3344       H  0.85686825  0.68028680  0.79984461     0.33160
H3345       H  0.82996813  0.61538011  0.75429990     0.32130
H3346       H  0.86745870  0.64098621  0.95405887     0.36130
H3347       H  0.91628946  0.63021077  0.90845902     0.28860
H3348       H  0.73476508  0.62147493  0.81641632     0.33090
H3349       H  0.78105763  0.59952225  0.76748465     0.35940
H3350       H  0.82611905  0.69354035  0.85705268     0.28550
H3351       H  0.90488484  0.61408338  0.92552441     0.41430
H3352       H  0.75825321  0.59765654  0.94258762     0.31480
H3353       H  0.77314396  0.63314677  0.96386572     0.39100
H3354       H  0.83681954  0.63355988  0.76820901     0.30950
H3355       H  0.77985140  0.56489384  0.87074247     0.31010
H3356       H  0.73946145  0.64009873  0.80472851     0.31280
Zr3357     Zr  0.50634129  0.73236225  0.26029706     2.17510
O3358       O  0.50713121  0.72111925  0.30947477    -0.51080
O3359       O  0.96802733  0.70984047  0.26083610    -0.74280
O3360       O  0.98316712  0.75115495  0.29520449    -0.81070
O3361       O  0.55480633  0.69710978  0.23501628    -0.82810
O3362       O  0.96972832  0.77672527  0.27438739    -0.78440
O3363       O  0.54743683  0.71502059  0.27238821    -0.90070
O3364       O  0.94594448  0.70846989  0.21739811    -0.76040
O3365       O  0.97110387  0.74646893  0.23135032    -0.85530
O3366       O  0.50644250  0.71619602  0.21654930    -0.85220
O3367       O  0.52353075  0.76208486  0.25595139    -0.71970
O3368       O  0.55486263  0.73439245  0.24188248    -0.84110
Zr3369     Zr  0.53601650  0.76185150  0.16316508     2.26420
Zr3370     Zr  0.98859452  0.77586816  0.22526155     2.06270
Zr3371     Zr  0.55445997  0.71881288  0.19733270     2.10050
Zr3372     Zr  0.97111079  0.73029742  0.18765677     1.78760
O3373       O  0.60644703  0.71647262  0.20405925    -0.92910
O3374       O  0.92096834  0.73974309  0.18906307    -0.40720
O3375       O  0.51891103  0.73240809  0.16773761    -0.77350
O3376       O  0.98720760  0.76011547  0.18088676    -0.96040
O3377       O  0.53655622  0.77775560  0.20677592    -0.89340
O3378       O  0.57154994  0.74802077  0.19191210    -0.92190
C3379       C  0.94915947  0.70328313  0.24350540     1.01570
C3380       C  0.55247750  0.70000063  0.26188734     1.14500
C3381       C  0.97132131  0.76620723  0.29585096     1.05280
O3382       O  0.93774450  0.78045613  0.21446428    -0.94340
O3383       O  0.99266232  0.79927545  0.18931340    -0.90080
O3384       O  0.52192729  0.79115928  0.15246606    -0.83230
C3385       C  0.00566115  0.80213276  0.16523957     1.11920
O3386       O  0.58594507  0.76159711  0.28627423    -0.96310
Zr3387     Zr  0.57142227  0.76384249  0.23602108     1.88940
O3388       O  0.58028113  0.77895412  0.15960134    -0.72960
O3389       O  0.99281221  0.80498484  0.24605507    -0.52230
O3390       O  0.57104942  0.79326473  0.25594700    -0.96900
O3391       O  0.62059201  0.75331823  0.24265125    -0.54120
O3392       O  0.60167917  0.78096140  0.20343733    -0.73480
C3393       C  0.60021117  0.78452293  0.17650654     0.98860
O3394       O  0.51695637  0.76584329  0.11462635    -0.62300
O3395       O  0.55497238  0.68965996  0.17639210    -0.57100
O3396       O  0.56082076  0.74445920  0.12831968    -0.93790
O3397       O  0.56584488  0.71700455  0.14639566    -0.92210
O3398       O  0.97204024  0.70358057  0.15934421    -0.92570
O3399       O  0.95124561  0.73445820  0.13969747    -0.91350
C3400       C  0.56734767  0.72832742  0.12611546     1.17710
H3401       H  0.50200977  0.70396446  0.21926626     0.33650
H3402       H  0.97434456  0.76593209  0.16765673     0.44500
H3403       H  0.59027660  0.74813687  0.18278383     0.38030
H3404       H  0.52446678  0.76782378  0.27437922     0.34510
H3405       H  0.90968537  0.72938760  0.18289134     0.26300
H3406       H  0.97307425  0.80809864  0.25234767     0.32230
H3407       H  0.59136308  0.79729769  0.25484232     0.38140
H3408       H  0.95206486  0.69895084  0.16031386     0.32600
H3409       H  0.57191280  0.68379765  0.18502293     0.31480
H3410       H  0.61381074  0.71238873  0.18527641     0.33160
H3411       H  0.63232464  0.76397561  0.24597169     0.32130
H3412       H  0.96786350  0.73842170  0.12796339     0.36130
H3413       H  0.51333730  0.75391405  0.10721556     0.28860
H3414       H  0.48681685  0.72070657  0.31608994     0.33090
H3415       H  0.60001945  0.77117912  0.28943359     0.35940
H3416       H  0.53800673  0.68358251  0.18473328     0.28550
H3417       H  0.99728128  0.77074839  0.11715976     0.41430
H3418       H  0.92725238  0.77401368  0.22972850     0.31480
H3419       H  0.91644066  0.74098250  0.20974831     0.39100
H3420       H  0.62667537  0.74921303  0.22343732     0.30950
H3421       H  0.50395781  0.80337715  0.26407528     0.31010
H3422       H  0.51660335  0.73022944  0.32131809     0.31280
Zr3423     Zr  0.63628448  0.73748454  0.90795712     2.17510
O3424       O  0.63582261  0.72486196  0.85978434    -0.51080
O3425       O  0.67495746  0.71518520  0.90687371    -0.74280
O3426       O  0.65659720  0.75672202  0.87165229    -0.81070
O3427       O  0.59448808  0.70077816  0.93515825    -0.82810
O3428       O  0.66896625  0.78265963  0.89201945    -0.78440
O3429       O  0.59472726  0.71972626  0.89873311    -0.90070
O3430       O  0.69785517  0.71418162  0.94991763    -0.76040
O3431       O  0.67144859  0.75262178  0.93559931    -0.85530
O3432       O  0.63851454  0.72143837  0.95190862    -0.85220
O3433       O  0.61708730  0.76672696  0.91275778    -0.71970
O3434       O  0.58807015  0.73836942  0.92768836    -0.84110
Zr3435     Zr  0.60629517  0.76612588  0.00581425     2.26420
Zr3436     Zr  0.65211453  0.78144365  0.94218871     2.06270
Zr3437     Zr  0.59086979  0.72270637  0.97218387     2.10050
Zr3438     Zr  0.67363381  0.73657137  0.97944628     1.78760
O3439       O  0.53865642  0.71996423  0.96782237    -0.92910
O3440       O  0.72301085  0.74728264  0.97435344    -0.40720
O3441       O  0.62622070  0.73746774  0.00046927    -0.77350
O3442       O  0.65492410  0.76575162  0.98675370    -0.96040
O3443       O  0.60450242  0.78199936  0.96211516    -0.89340
O3444       O  0.57112172  0.75127633  0.97810540    -0.92190
C3445       C  0.69403017  0.70866798  0.92402905     1.01570
C3446       C  0.59370013  0.70422484  0.90840658     1.14500
C3447       C  0.66742135  0.77212195  0.87055200     1.05280
O3448       O  0.70306055  0.78636630  0.95248407    -0.94340
O3449       O  0.64761291  0.80511257  0.97760666    -0.90080
O3450       O  0.61942150  0.79563166  0.01450692    -0.83230
C3451       C  0.63446377  0.80726793  0.00176286     1.11920
O3452       O  0.55358402  0.76421780  0.88439129    -0.96310
Zr3453     Zr  0.56948669  0.76734591  0.93408097     1.88940
O3454       O  0.56119828  0.78314952  0.00994122    -0.72960
O3455       O  0.64788137  0.81068998  0.92178420    -0.52230
O3456       O  0.56843010  0.79651232  0.91299911    -0.96900
O3457       O  0.52065929  0.75562030  0.92963691    -0.54120
O3458       O  0.53904538  0.78480745  0.96647496    -0.73480
C3459       C  0.54080806  0.78869435  0.99331431     0.98860
O3460       O  0.62558089  0.77100136  0.05410072    -0.62300
O3461       O  0.58512155  0.69345634  0.99230668    -0.57100
O3462       O  0.58547244  0.74703827  0.04170199    -0.93790
O3463       O  0.58846507  0.71947641  0.02397217    -0.92210
O3464       O  0.67599690  0.71074400  0.00999911    -0.92570
O3465       O  0.69571437  0.74224446  0.02602830    -0.91350
C3466       C  0.58473111  0.73039103  0.04441064     1.17710
H3467       H  0.64364605  0.70931873  0.94959422     0.33650
H3468       H  0.66760643  0.77196851  0.99970872     0.44500
H3469       H  0.55269258  0.75094686  0.98780600     0.38030
H3470       H  0.61529083  0.77241440  0.89432015     0.34510
H3471       H  0.73521000  0.73758154  0.98139921     0.26300
H3472       H  0.66744464  0.81376352  0.91477150     0.32230
H3473       H  0.54795728  0.80012214  0.91406674     0.38140
H3474       H  0.69608984  0.70653822  0.00806733     0.32600
H3475       H  0.56947026  0.68788089  0.98103872     0.31480
H3476       H  0.53188192  0.71784831  0.98771279     0.33160
H3477       H  0.50839377  0.76591971  0.92571548     0.32130
H3478       H  0.67945258  0.74581625  0.03847819     0.36130
H3479       H  0.63160864  0.75935224  0.06111940     0.28860
H3480       H  0.65596947  0.72542361  0.85270787     0.33090
H3481       H  0.53895599  0.77343208  0.88134556     0.35940
H3482       H  0.60286816  0.68711564  0.98680751     0.28550
H3483       H  0.64412006  0.77728024  0.05135047     0.41430
H3484       H  0.71331789  0.78174608  0.93547019     0.31480
H3485       H  0.72656736  0.74760285  0.95338057     0.39100
H3486       H  0.51520275  0.75196494  0.94931922     0.30950
H3487       H  0.63601633  0.80928264  0.90422999     0.31010
H3488       H  0.62496991  0.73317648  0.84759289     0.31280
Zr3489     Zr  0.74067054  0.74226220  0.75595657     2.17510
O3490       O  0.75981697  0.73965203  0.80460826    -0.51080
O3491       O  0.70206802  0.72050198  0.76011479    -0.74280
O3492       O  0.71166485  0.75793864  0.79021479    -0.81070
O3493       O  0.78854156  0.70546131  0.73028920    -0.82810
O3494       O  0.70099081  0.78431961  0.77048878    -0.78440
O3495       O  0.76090858  0.71498571  0.76739168    -0.90070
O3496       O  0.68413809  0.71554843  0.71540495    -0.76040
O3497       O  0.70344007  0.75439093  0.72744698    -0.85530
O3498       O  0.74133856  0.72565803  0.71285886    -0.85220
O3499       O  0.75605831  0.77201805  0.75047608    -0.71970
O3500       O  0.78915904  0.74463863  0.73764591    -0.84110
Zr3501     Zr  0.76804320  0.76967042  0.65796609     2.26420
Zr3502     Zr  0.71895614  0.78390631  0.72054757     2.06270
Zr3503     Zr  0.78894027  0.72818532  0.69392475     2.10050
Zr3504     Zr  0.70470731  0.73794434  0.68401098     1.78760
O3505       O  0.84083380  0.72663583  0.70173763    -0.92910
O3506       O  0.65385352  0.74576455  0.68710986    -0.40720
O3507       O  0.75231494  0.74019496  0.66383016    -0.77350
O3508       O  0.71936618  0.76768162  0.67629186    -0.96040
O3509       O  0.76670017  0.78639604  0.70075128    -0.89340
O3510       O  0.80485351  0.75759580  0.68676270    -0.92190
C3511       C  0.68627114  0.71190133  0.74228519     1.01570
C3512       C  0.77641050  0.70363528  0.75483807     1.14500
C3513       C  0.70072971  0.77322463  0.79134497     1.05280
O3514       O  0.66740106  0.78611355  0.71094776    -0.94340
O3515       O  0.71788046  0.80676710  0.68422270    -0.90080
O3516       O  0.74674037  0.79656919  0.64860988    -0.83230
C3517       C  0.73076533  0.80806480  0.65992672     1.11920
O3518       O  0.82123531  0.77054867  0.77866630    -0.96310
Zr3519     Zr  0.80357768  0.77455683  0.72973032     1.88940
O3520       O  0.80719000  0.79156430  0.65325001    -0.72960
O3521       O  0.72140831  0.81338862  0.74008597    -0.52230
O3522       O  0.80153589  0.80257373  0.75441084    -0.96900
O3523       O  0.85480154  0.76727287  0.73047977    -0.54120
O3524       O  0.82641577  0.79613019  0.69749705    -0.73480
C3525       C  0.82435685  0.79976499  0.67052868     0.98860
O3526       O  0.75054266  0.77149648  0.60841419    -0.62300
O3527       O  0.79078991  0.69915420  0.67249939    -0.57100
O3528       O  0.79427781  0.75247482  0.62340478    -0.93790
O3529       O  0.80023062  0.72555182  0.64313360    -0.92210
O3530       O  0.70484075  0.71109316  0.65601639    -0.92570
O3531       O  0.68346414  0.74171194  0.63653779    -0.91350
C3532       C  0.80141358  0.73636299  0.62212558     1.17710
H3533       H  0.73724260  0.71342289  0.71585116     0.33650
H3534       H  0.70612886  0.77295241  0.66281139     0.44500
H3535       H  0.82330965  0.75816722  0.67714392     0.38030
H3536       H  0.75631509  0.77778699  0.76891329     0.34510
H3537       H  0.64334936  0.73518579  0.68061749     0.26300
H3538       H  0.70160305  0.81594694  0.74684293     0.32230
H3539       H  0.82133729  0.80742544  0.75293807     0.38140
H3540       H  0.68496078  0.70639799  0.65779504     0.32600
H3541       H  0.80739471  0.69324235  0.68166960     0.31480
H3542       H  0.84847410  0.72127450  0.68396581     0.33160
H3543       H  0.86467117  0.77831686  0.73574607     0.32130
H3544       H  0.69978186  0.74543381  0.62419295     0.36130
H3545       H  0.74602357  0.75932032  0.60274992     0.28860
H3546       H  0.74363191  0.73521624  0.81650860     0.33090
H3547       H  0.83553803  0.77999786  0.78188023     0.35940
H3548       H  0.77350039  0.69292688  0.67983184     0.28550
H3549       H  0.73130862  0.77705353  0.60941092     0.41430
H3550       H  0.65800858  0.78031040  0.72755022     0.31480
H3551       H  0.64970360  0.74643255  0.70794703     0.39100
H3552       H  0.86024601  0.76538535  0.71016718     0.30950
H3553       H  0.73309578  0.81235382  0.75782179     0.31010
H3554       H  0.76311957  0.75179046  0.81121443     0.31280
Zr3555     Zr  0.89991679  0.73415130  0.41110052     2.17510
O3556       O  0.90125032  0.72227656  0.36244968    -0.51080
O3557       O  0.93622366  0.71101457  0.41101178    -0.74280
O3558       O  0.92322613  0.75236547  0.37518832    -0.81070
O3559       O  0.85286510  0.69847254  0.43845127    -0.82810
O3560       O  0.94094968  0.77692483  0.39610247    -0.78440
O3561       O  0.85721475  0.71724944  0.40238797    -0.90070
O3562       O  0.95795269  0.70943212  0.45463282    -0.76040
O3563       O  0.93652428  0.74689555  0.43999489    -0.85530
O3564       O  0.89857762  0.71823786  0.45533737    -0.85220
O3565       O  0.88550219  0.76427789  0.41486622    -0.71970
O3566       O  0.85135175  0.73730039  0.42917961    -0.84110
Zr3567     Zr  0.87284257  0.76369363  0.50761492     2.26420
Zr3568     Zr  0.92200741  0.77670699  0.44520593     2.06270
Zr3569     Zr  0.85037418  0.72151725  0.47391742     2.10050
Zr3570     Zr  0.93473836  0.73126491  0.48433436     1.78760
O3571       O  0.79931594  0.71939180  0.46192355    -0.92910
O3572       O  0.98549359  0.73977132  0.48319947    -0.40720
O3573       O  0.88701360  0.73388082  0.50395075    -0.77350
O3574       O  0.92149741  0.76130378  0.49021848    -0.96040
O3575       O  0.87440102  0.77962972  0.46403772    -0.89340
O3576       O  0.83595820  0.75125971  0.47896168    -0.92190
C3577       C  0.95436628  0.70426678  0.42869359     1.01570
C3578       C  0.85560986  0.70164092  0.41170072     1.14500
C3579       C  0.93729645  0.76676394  0.37449083     1.05280
O3580       O  0.97321455  0.77966986  0.45611130    -0.94340
O3581       O  0.92015451  0.80048921  0.47981904    -0.90080
O3582       O  0.89197326  0.79152049  0.51707109    -0.83230
C3583       C  0.90759833  0.80272883  0.50412769     1.11920
O3584       O  0.81882606  0.76198902  0.38702067    -0.96310
Zr3585     Zr  0.83793376  0.76735926  0.43506020     1.88940
O3586       O  0.83526987  0.78579508  0.51102542    -0.72960
O3587       O  0.92026595  0.80584786  0.42402999    -0.52230
O3588       O  0.84132541  0.79433835  0.40732671    -0.96900
O3589       O  0.78607054  0.76159621  0.43595447    -0.54120
O3590       O  0.81808827  0.79030156  0.46592261    -0.73480
C3591       C  0.81984898  0.79422705  0.49275531     0.98860
O3592       O  0.89113919  0.76550131  0.55673439    -0.62300
O3593       O  0.84722320  0.69325673  0.49794626    -0.57100
O3594       O  0.84287293  0.74864888  0.54158522    -0.93790
O3595       O  0.83363314  0.72155270  0.52370363    -0.92210
O3596       O  0.93329928  0.70426650  0.51210019    -0.92570
O3597       O  0.95453619  0.73497704  0.53241851    -0.91350
C3598       C  0.83272819  0.73316048  0.54356341     1.17710
H3599       H  0.90247971  0.70594749  0.45298512     0.33650
H3600       H  0.93469924  0.76682909  0.50350109     0.44500
H3601       H  0.81738734  0.75218331  0.48824709     0.38030
H3602       H  0.88495455  0.77005145  0.39642187     0.34510
H3603       H  0.99603144  0.72923667  0.48964593     0.26300
H3604       H  0.94023010  0.80841848  0.41762951     0.32230
H3605       H  0.82216739  0.79988858  0.40938174     0.38140
H3606       H  0.95333074  0.69980925  0.51156703     0.32600
H3607       H  0.83116162  0.68701225  0.48830689     0.31480
H3608       H  0.79019879  0.71436023  0.47933073     0.33160
H3609       H  0.77717360  0.77263325  0.42931879     0.32130
H3610       H  0.93792485  0.73872648  0.54422970     0.36130
H3611       H  0.89321957  0.75323594  0.56319454     0.28860
H3612       H  0.92173353  0.72204563  0.35635756     0.33090
H3613       H  0.80544145  0.77173552  0.38294397     0.35940
H3614       H  0.86485383  0.68693987  0.49202822     0.28550
H3615       H  0.91128604  0.76973797  0.55488643     0.41430
H3616       H  0.98312101  0.77343981  0.44033495     0.31480
H3617       H  0.99029187  0.74084086  0.46253793     0.39100
H3618       H  0.78076959  0.76085328  0.45651679     0.30950
H3619       H  0.90895171  0.80453084  0.40610066     0.31010
H3620       H  0.89175096  0.73095034  0.34980729     0.31280
Zr3621     Zr  0.89317744  0.86953179  0.60815870     2.17510
O3622       O  0.86189462  0.87461833  0.56689456    -0.51080
O3623       O  0.87071312  0.84708021  0.63868146    -0.74280
O3624       O  0.88744809  0.84366947  0.57854167    -0.81070
O3625       O  0.88009461  0.91616072  0.61748261    -0.82810
O3626       O  0.93308389  0.83650639  0.56498570    -0.78440
O3627       O  0.85650262  0.89041514  0.62153800    -0.90070
O3628       O  0.90462639  0.84224235  0.67310771    -0.76040
O3629       O  0.93101945  0.85135493  0.62456875    -0.85530
O3630       O  0.90777993  0.88227081  0.65314722    -0.85220
O3631       O  0.92924588  0.87134127  0.57150226    -0.71970
O3632       O  0.91112786  0.89846475  0.59963792    -0.84110
Zr3633     Zr  0.99918831  0.89468404  0.62188385     2.26420
Zr3634     Zr  0.96784175  0.85389323  0.58925877     2.06270
Zr3635     Zr  0.92585446  0.91155681  0.64375145     2.10050
Zr3636     Zr  0.94521726  0.86351761  0.66894181     1.78760
O3637       O  0.90920855  0.94165927  0.64602867    -0.92910
O3638       O  0.97003381  0.83613728  0.67862948    -0.40720
O3639       O  0.96364176  0.89283265  0.65995910    -0.77350
O3640       O  0.98369642  0.86549507  0.63413422    -0.96040
O3641       O  0.98362516  0.88260721  0.57780097    -0.89340
O3642       O  0.96093220  0.91310644  0.60629337    -0.92190
C3643       C  0.88035443  0.83859538  0.66062177     1.01570
C3644       C  0.85796918  0.90627007  0.61284399     1.14500
C3645       C  0.90568578  0.83501717  0.56357010     1.05280
O3646       O  0.97884120  0.82397966  0.60322955    -0.94340
O3647       O  0.51883965  0.85047139  0.58787329    -0.90080
O3648       O  0.53674917  0.87703635  0.60099150    -0.83230
C3649       C  0.53919623  0.86149579  0.59117792     1.11920
O3650       O  0.90116011  0.90784186  0.53548429    -0.96310
Zr3651     Zr  0.94492961  0.90038444  0.56199993     1.88940
O3652       O  0.51606167  0.91504408  0.58426461    -0.72960
O3653       O  0.98461644  0.84985159  0.54008753    -0.52230
O3654       O  0.94564279  0.88762629  0.51403038    -0.96900
O3655       O  0.94231160  0.93150287  0.55044154    -0.54120
O3656       O  0.99306367  0.90479099  0.54543586    -0.73480
C3657       C  0.51045371  0.91545063  0.55720988     0.98860
O3658       O  0.54074476  0.89319833  0.65393286    -0.62300
O3659       O  0.90551447  0.91310947  0.69198843    -0.57100
O3660       O  0.00955000  0.92178262  0.64566028    -0.93790
O3661       O  0.96573763  0.93229615  0.65894488    -0.92210
O3662       O  0.92180588  0.87049195  0.71430082    -0.92570
O3663       O  0.97876694  0.86524425  0.70912050    -0.91350
C3664       C  0.99376118  0.93346783  0.65727781     1.17710
H3665       H  0.89184773  0.88217498  0.66652752     0.33650
H3666       H  0.49997796  0.85892045  0.64104894     0.44500
H3667       H  0.96726567  0.92502786  0.60358690     0.38030
H3668       H  0.92189645  0.86701230  0.55346823     0.34510
H3669       H  0.95935255  0.83087983  0.69494942     0.26300
H3670       H  0.48519190  0.83712083  0.53721015     0.32230
H3671       H  0.95497248  0.89660075  0.50175489     0.38140
H3672       H  0.91936286  0.85909131  0.72412588     0.32600
H3673       H  0.88508932  0.90944528  0.68996011     0.31480
H3674       H  0.89229023  0.94138427  0.65902769     0.33160
H3675       H  0.94564917  0.93218300  0.52945704     0.32130
H3676       H  0.49686623  0.86984246  0.70046419     0.36130
H3677       H  0.53297485  0.89598419  0.67320336     0.28860
H3678       H  0.86867639  0.86728910  0.55079208     0.33090
H3679       H  0.90739894  0.91191759  0.51625265     0.35940
H3680       H  0.91488305  0.90357966  0.70286961     0.28550
H3681       H  0.54553767  0.88062598  0.65523523     0.41430
H3682       H  0.96003762  0.81884403  0.60894995     0.31480
H3683       H  0.96517688  0.82858740  0.66206359     0.39100
H3684       H  0.95973863  0.93697359  0.55886266     0.30950
H3685       H  0.96846209  0.85380737  0.52779490     0.31010
H3686       H  0.86682894  0.88657331  0.56052943     0.31280
Zr3687     Zr  0.76531365  0.86756819  0.55099424     2.17510
O3688       O  0.81061928  0.86488187  0.57685911    -0.51080
O3689       O  0.78138698  0.84338537  0.52065572    -0.74280
O3690       O  0.76626589  0.84708823  0.59049795    -0.81070
O3691       O  0.78053976  0.91500534  0.54238536    -0.82810
O3692       O  0.72432012  0.83283663  0.58440091    -0.78440
O3693       O  0.80325744  0.88902625  0.54161531    -0.90070
O3694       O  0.74803055  0.83997121  0.48534189    -0.76040
O3695       O  0.72537248  0.85037598  0.53577683    -0.85530
O3696       O  0.75152003  0.87976466  0.50549100    -0.85220
O3697       O  0.72999165  0.87137511  0.58875985    -0.71970
O3698       O  0.74973140  0.89687674  0.55875690    -0.84110
Zr3699     Zr  0.66128984  0.89497531  0.53737941     2.26420
Zr3700     Zr  0.68972767  0.85447803  0.57226393     2.06270
Zr3701     Zr  0.73640131  0.90959355  0.51411640     2.10050
Zr3702     Zr  0.71119376  0.86246876  0.49106581     1.78760
O3703       O  0.75542975  0.93905643  0.50743568    -0.92910
O3704       O  0.68411225  0.83558596  0.48266604    -0.40720
O3705       O  0.69613329  0.89220600  0.49918659    -0.77350
O3706       O  0.67405164  0.86531865  0.52663074    -0.96040
O3707       O  0.67641846  0.88355437  0.58213670    -0.89340
O3708       O  0.70123344  0.91288375  0.55136332    -0.92190
C3709       C  0.77113406  0.83538163  0.49858183     1.01570
C3710       C  0.80202742  0.90514367  0.54887563     1.14500
C3711       C  0.74719876  0.83608671  0.59849200     1.05280
O3712       O  0.67090974  0.82489661  0.57764677    -0.94340
O3713       O  0.63883285  0.85053059  0.56808071    -0.90080
O3714       O  0.62227442  0.87767324  0.55707593    -0.83230
C3715       C  0.61892700  0.86179860  0.56520375     1.11920
O3716       O  0.76305652  0.90428070  0.62038043    -0.96310
Zr3717     Zr  0.71655226  0.90082215  0.59629734     1.88940
O3718       O  0.64508395  0.91502712  0.57500519    -0.72960
O3719       O  0.67760802  0.85855118  0.62280869    -0.52230
O3720       O  0.71675686  0.89269448  0.64695339    -0.96900
O3721       O  0.71968245  0.93224899  0.60487881    -0.54120
O3722       O  0.66797095  0.90347082  0.61272634    -0.73480
C3723       C  0.65083014  0.91460489  0.60196834     0.98860
O3724       O  0.61926169  0.89507330  0.50567235    -0.62300
O3725       O  0.75807001  0.90730349  0.46654402    -0.57100
O3726       O  0.65498232  0.92176270  0.51180998    -0.93790
O3727       O  0.69933555  0.93077932  0.49681077    -0.92210
O3728       O  0.73387756  0.86993108  0.44544893    -0.92570
O3729       O  0.67617854  0.86440716  0.45219113    -0.91350
C3730       C  0.67162087  0.93260446  0.49894642     1.17710
H3731       H  0.76731319  0.87890586  0.49202396     0.33650
H3732       H  0.65730971  0.85903380  0.51975042     0.44500
H3733       H  0.69574487  0.92497177  0.55338465     0.38030
H3734       H  0.73619047  0.86796043  0.60772875     0.34510
H3735       H  0.69463814  0.82957380  0.46705784     0.26300
H3736       H  0.66668608  0.84790454  0.62827313     0.32230
H3737       H  0.71299093  0.90372243  0.65735805     0.38140
H3738       H  0.73555579  0.85866878  0.43515641     0.32600
H3739       H  0.75099976  0.91768050  0.45598099     0.31480
H3740       H  0.77407040  0.93759078  0.49733734     0.33160
H3741       H  0.71964959  0.93341083  0.62606466     0.32130
H3742       H  0.65885164  0.86958478  0.46120587     0.36130
H3743       H  0.62702988  0.89771390  0.48631172     0.28860
H3744       H  0.81618357  0.85239673  0.57661024     0.33090
H3745       H  0.76172843  0.91511944  0.63185243     0.35940
H3746       H  0.77889218  0.90961785  0.46962527     0.28550
H3747       H  0.61306861  0.88270683  0.50422397     0.41430
H3748       H  0.67237811  0.81975765  0.55818965     0.31480
H3749       H  0.68773332  0.82835966  0.49995897     0.39100
H3750       H  0.70081252  0.93708276  0.59897975     0.30950
H3751       H  0.69597091  0.85780487  0.63356448     0.31010
H3752       H  0.80669391  0.86777209  0.59723047     0.31280
Zr3753     Zr  0.72980519  0.23943584  0.25673099     2.17510
O3754       O  0.74597374  0.23409987  0.30588561    -0.51080
O3755       O  0.68584119  0.22143229  0.25939890    -0.74280
O3756       O  0.70564779  0.25769013  0.29125398    -0.81070
O3757       O  0.77174949  0.20094193  0.23207734    -0.82810
O3758       O  0.70615249  0.28541404  0.27371175    -0.78440
O3759       O  0.74588326  0.21103931  0.27005992    -0.90070
O3760       O  0.66371202  0.22024070  0.21592877    -0.76040
O3761       O  0.69587092  0.25498931  0.22843020    -0.85530
O3762       O  0.72718205  0.22345559  0.21308057    -0.85220
O3763       O  0.75171293  0.26793960  0.25199758    -0.71970
O3764       O  0.77858362  0.23893974  0.23850040    -0.84110
Zr3765     Zr  0.76347975  0.26754972  0.15972817     2.26420
Zr3766     Zr  0.71766788  0.28321598  0.22213489     2.06270
Zr3767     Zr  0.77522174  0.22332824  0.19420049     2.10050
Zr3768     Zr  0.69372022  0.23904985  0.18448206     1.78760
O3769       O  0.82646661  0.21800284  0.20167320    -0.92910
O3770       O  0.64513410  0.25104579  0.18208909    -0.40720
O3771       O  0.74183278  0.23907969  0.16483229    -0.77350
O3772       O  0.71419490  0.26789537  0.17726564    -0.96040
O3773       O  0.76606014  0.28334162  0.20335074    -0.89340
O3774       O  0.79691208  0.25164397  0.18790167    -0.92190
C3775       C  0.66582749  0.21575860  0.24255038     1.01570
C3776       C  0.76041360  0.19928684  0.25725538     1.14500
C3777       C  0.70204927  0.27415339  0.29387906     1.05280
O3778       O  0.66747373  0.28542571  0.20697207    -0.94340
O3779       O  0.73346902  0.30750327  0.19143254    -0.90080
O3780       O  0.74250728  0.29504802  0.14843501    -0.83230
C3781       C  0.73931834  0.30835320  0.16446627     1.11920
O3782       O  0.81498893  0.26371580  0.28139676    -0.96310
Zr3783     Zr  0.79956738  0.26761556  0.23170611     1.88940
O3784       O  0.80807996  0.28578229  0.15791461    -0.72960
O3785       O  0.70504398  0.31278414  0.23695950    -0.52230
O3786       O  0.80153747  0.29629661  0.25430640    -0.96900
O3787       O  0.84763130  0.25495475  0.23550659    -0.54120
O3788       O  0.83140893  0.28555788  0.20072691    -0.73480
C3789       C  0.82911699  0.29063897  0.17444062     0.98860
O3790       O  0.75728953  0.27201153  0.10811105    -0.62300
O3791       O  0.77083586  0.19449005  0.17250275    -0.57100
O3792       O  0.78242534  0.24825566  0.12387076    -0.93790
O3793       O  0.78757968  0.22109672  0.14310138    -0.92210
O3794       O  0.69106711  0.21114592  0.15950801    -0.92570
O3795       O  0.67680169  0.24265201  0.13527197    -0.91350
C3796       C  0.78882446  0.23208024  0.12218660     1.17710
H3797       H  0.72043112  0.21163007  0.21603731     0.33650
H3798       H  0.70201706  0.27426540  0.16408263     0.44500
H3799       H  0.81541752  0.25091272  0.17841937     0.38030
H3800       H  0.75393334  0.27328862  0.27062665     0.34510
H3801       H  0.63292089  0.24124769  0.17524001     0.26300
H3802       H  0.68588731  0.31186221  0.24630198     0.32230
H3803       H  0.82210083  0.29984056  0.25334654     0.38140
H3804       H  0.67030429  0.20800464  0.15963972     0.32600
H3805       H  0.78671228  0.18755365  0.18097586     0.31480
H3806       H  0.83448934  0.21666165  0.18208628     0.33160
H3807       H  0.86055742  0.26495035  0.23984147     0.32130
H3808       H  0.69381617  0.24716107  0.12466811     0.36130
H3809       H  0.73656532  0.27462425  0.10523106     0.28860
H3810       H  0.72832128  0.23158576  0.31720529     0.33090
H3811       H  0.83066725  0.27234820  0.28447946     0.35940
H3812       H  0.75296838  0.18940729  0.18076333     0.28550
H3813       H  0.76761385  0.28301640  0.10343326     0.41430
H3814       H  0.65620765  0.28419128  0.22495085     0.31480
H3815       H  0.63933110  0.25264013  0.20238718     0.39100
H3816       H  0.85284517  0.25154360  0.21567879     0.30950
H3817       H  0.71864037  0.31580181  0.25262672     0.31010
H3818       H  0.75307667  0.24551272  0.31305021     0.31280
Zr3819     Zr  0.51467741  0.23468643  0.76722441     2.17510
O3820       O  0.51903349  0.22359754  0.81625514    -0.51080
O3821       O  0.97599622  0.21201360  0.76752860    -0.74280
O3822       O  0.98827862  0.25233268  0.80208145    -0.81070
O3823       O  0.55951245  0.19849431  0.73903524    -0.82810
O3824       O  0.97442520  0.27760856  0.78044992    -0.78440
O3825       O  0.55721930  0.21768921  0.77463383    -0.90070
O3826       O  0.95383910  0.21115840  0.72410572    -0.76040
O3827       O  0.98032147  0.24917933  0.73810230    -0.85530
O3828       O  0.51506845  0.21872404  0.72303978    -0.85220
O3829       O  0.53262378  0.26433918  0.76347667    -0.71970
O3830       O  0.56330044  0.23681545  0.74830565    -0.84110
Zr3831     Zr  0.54629041  0.26435368  0.67017778     2.26420
Zr3832     Zr  0.49831777  0.27849517  0.73277804     2.06270
Zr3833     Zr  0.56339648  0.22126305  0.70345599     2.10050
Zr3834     Zr  0.98013282  0.23302069  0.69446565     1.78760
O3835       O  0.61494534  0.21947643  0.71330176    -0.92910
O3836       O  0.93033961  0.24311421  0.69546408    -0.40720
O3837       O  0.52798786  0.23508731  0.67415907    -0.77350
O3838       O  0.49736809  0.26271053  0.68823315    -0.96040
O3839       O  0.54627080  0.28016397  0.71398855    -0.89340
O3840       O  0.58149118  0.25038375  0.69893578    -0.92190
C3841       C  0.95680972  0.20567104  0.75016881     1.01570
C3842       C  0.55779016  0.20207954  0.76563185     1.14500
C3843       C  0.97464230  0.26689517  0.80192468     1.05280
O3844       O  0.94874332  0.28620266  0.72106204    -0.94340
O3845       O  0.00308234  0.30189413  0.69628139    -0.90080
O3846       O  0.53247621  0.29349446  0.65960975    -0.83230
C3847       C  0.51634106  0.30453248  0.67215035     1.11920
O3848       O  0.59580178  0.26290174  0.79326257    -0.96310
Zr3849     Zr  0.58089237  0.26617724  0.74326601     1.88940
O3850       O  0.59003524  0.28250524  0.66760050    -0.72960
O3851       O  0.50714172  0.30599516  0.75763853    -0.52230
O3852       O  0.58033403  0.29519623  0.76472104    -0.96900
O3853       O  0.63015079  0.25560278  0.74912947    -0.54120
O3854       O  0.61110977  0.28452110  0.71156162    -0.73480
C3855       C  0.60961402  0.28847101  0.68469353     0.98860
O3856       O  0.52721835  0.26850267  0.62167552    -0.62300
O3857       O  0.56975885  0.19267736  0.68140400    -0.57100
O3858       O  0.57121098  0.24725147  0.63450196    -0.93790
O3859       O  0.57347726  0.21953282  0.65184747    -0.92210
O3860       O  0.98089153  0.20619800  0.66642982    -0.92570
O3861       O  0.96066718  0.23739796  0.64640530    -0.91350
C3862       C  0.57621434  0.23091847  0.63169510     1.17710
H3863       H  0.50996809  0.20656171  0.72541337     0.33650
H3864       H  0.98464497  0.26867577  0.67500523     0.44500
H3865       H  0.60024655  0.25058795  0.68986760     0.38030
H3866       H  0.53287316  0.26982668  0.78214745     0.34510
H3867       H  0.91875027  0.23289891  0.68922268     0.26300
H3868       H  0.98770854  0.31048191  0.76252460     0.32230
H3869       H  0.60067937  0.29921186  0.76415527     0.38140
H3870       H  0.96076596  0.20179103  0.66700537     0.32600
H3871       H  0.58555505  0.18704933  0.69231756     0.31480
H3872       H  0.62394224  0.21800729  0.69416433     0.33160
H3873       H  0.64174412  0.26616576  0.75355108     0.32130
H3874       H  0.97735846  0.24147942  0.63488379     0.36130
H3875       H  0.52343328  0.25660042  0.61422762     0.28860
H3876       H  0.49904584  0.22180875  0.82324751     0.33090
H3877       H  0.60956706  0.27257189  0.79698457     0.35940
H3878       H  0.55217733  0.18594684  0.68650756     0.28550
H3879       H  0.50765446  0.27341942  0.62428199     0.41430
H3880       H  0.93680340  0.27747086  0.73142242     0.31480
H3881       H  0.92570465  0.24441438  0.71611509     0.39100
H3882       H  0.63641730  0.25223492  0.72958683     0.30950
H3883       H  0.51575917  0.30265836  0.77632117     0.31010
H3884       H  0.52679301  0.23343422  0.82774282     0.31280
Zr3885     Zr  0.65578630  0.23832528  0.41410286     2.17510
O3886       O  0.63991669  0.23202889  0.36515044    -0.51080
O3887       O  0.70057027  0.22083289  0.41151703    -0.74280
O3888       O  0.67776744  0.25729273  0.37868888    -0.81070
O3889       O  0.61731235  0.19866009  0.44088205    -0.82810
O3890       O  0.67821467  0.28494745  0.39640606    -0.78440
O3891       O  0.64066355  0.20973571  0.40187798    -0.90070
O3892       O  0.72302383  0.22047230  0.45482339    -0.76040
O3893       O  0.68886785  0.25500920  0.44166244    -0.85530
O3894       O  0.65925424  0.22258660  0.45805340    -0.85220
O3895       O  0.63193532  0.26613265  0.41850808    -0.71970
O3896       O  0.60707549  0.23661750  0.43276499    -0.84110
Zr3897     Zr  0.62088479  0.26595142  0.51071483     2.26420
Zr3898     Zr  0.66514209  0.28264309  0.44747066     2.06270
Zr3899     Zr  0.61132276  0.22142240  0.47752664     2.10050
Zr3900     Zr  0.69218297  0.23917525  0.48572697     1.78760
O3901       O  0.55996452  0.21606134  0.47028163    -0.92910
O3902       O  0.73962629  0.25302095  0.48666575    -0.40720
O3903       O  0.64426753  0.23807558  0.50610043    -0.77350
O3904       O  0.66967591  0.26742416  0.49227003    -0.96040
O3905       O  0.61720796  0.28135558  0.46675487    -0.89340
O3906       O  0.58803064  0.24908330  0.48318225    -0.92190
C3907       C  0.72097853  0.21559792  0.42836633     1.01570
C3908       C  0.62809114  0.19742232  0.41544938     1.14500
C3909       C  0.68170579  0.27377590  0.37612471     1.05280
O3910       O  0.71627378  0.28856899  0.45504685    -0.94340
O3911       O  0.65991718  0.30573070  0.48359390    -0.90080
O3912       O  0.63289647  0.29558392  0.52088144    -0.83230
C3913       C  0.64734591  0.30750397  0.50810554     1.11920
O3914       O  0.56832420  0.25940041  0.38982354    -0.96310
Zr3915     Zr  0.58423787  0.26469317  0.43902380     1.88940
O3916       O  0.57538835  0.28274578  0.51326432    -0.72960
O3917       O  0.65947948  0.31228846  0.42911501    -0.52230
O3918       O  0.58000392  0.29279318  0.41467551    -0.96900
O3919       O  0.53655117  0.25110534  0.43676779    -0.54120
O3920       O  0.55270725  0.28261792  0.47002902    -0.73480
C3921       C  0.55460578  0.28749284  0.49645077     0.98860
O3922       O  0.63872466  0.27034654  0.55964458    -0.62300
O3923       O  0.61170607  0.19248974  0.49950875    -0.57100
O3924       O  0.59814372  0.24741884  0.54588917    -0.93790
O3925       O  0.60283084  0.21956557  0.52967119    -0.92210
O3926       O  0.69647246  0.21169901  0.51186282    -0.92570
O3927       O  0.71006533  0.24363378  0.53438288    -0.91350
C3928       C  0.59724085  0.23085712  0.54935705     1.17710
H3929       H  0.66672782  0.21094178  0.45541100     0.33650
H3930       H  0.68149160  0.27425177  0.50520551     0.44500
H3931       H  0.56964821  0.24798090  0.49282852     0.38030
H3932       H  0.62957161  0.27138223  0.39978865     0.34510
H3933       H  0.75298509  0.24360999  0.49259235     0.26300
H3934       H  0.67846734  0.31552309  0.42084092     0.32230
H3935       H  0.55926319  0.29578042  0.41589620     0.38140
H3936       H  0.71733317  0.20894169  0.51137746     0.32600
H3937       H  0.59628645  0.18582364  0.48959524     0.31480
H3938       H  0.55216518  0.21429116  0.48988785     0.33160
H3939       H  0.52331757  0.26071728  0.43147735     0.32130
H3940       H  0.69298294  0.24754604  0.54536733     0.36130
H3941       H  0.64460510  0.25863624  0.56651157     0.28860
H3942       H  0.65770164  0.23011784  0.35378339     0.33090
H3943       H  0.55217153  0.26757634  0.38640710     0.35940
H3944       H  0.62996953  0.18707671  0.49307593     0.28550
H3945       H  0.65729292  0.27668750  0.55755642     0.41430
H3946       H  0.72551862  0.28574074  0.43645517     0.31480
H3947       H  0.74439576  0.25518833  0.46622593     0.39100
H3948       H  0.53147843  0.24833118  0.45692865     0.30950
H3949       H  0.64631908  0.31124274  0.41242832     0.31010
H3950       H  0.63170640  0.24307682  0.35771809     0.31280
Zr3951     Zr  0.88311351  0.23647936  0.90899085     2.17510
O3952       O  0.88048674  0.22484358  0.86023977    -0.51080
O3953       O  0.91969216  0.21313747  0.90911161    -0.74280
O3954       O  0.91087111  0.25374626  0.87463345    -0.81070
O3955       O  0.83593184  0.20094460  0.93537745    -0.82810
O3956       O  0.92692215  0.27831019  0.89704211    -0.78440
O3957       O  0.83973743  0.22021427  0.89967581    -0.90070
O3958       O  0.94158971  0.21198954  0.95268042    -0.76040
O3959       O  0.91794873  0.25035169  0.93867162    -0.85530
O3960       O  0.88189414  0.22035967  0.95301832    -0.85220
O3961       O  0.86698655  0.26637926  0.91256090    -0.71970
O3962       O  0.83448813  0.23886239  0.92706803    -0.84110
Zr3963     Zr  0.85153785  0.26593503  0.00568355     2.26420
Zr3964     Zr  0.90153804  0.27989328  0.94402862     2.06270
Zr3965     Zr  0.83363878  0.22306265  0.97172350     2.10050
Zr3966     Zr  0.91683585  0.23415627  0.98235197     1.78760
O3967       O  0.78234446  0.21963502  0.96162022    -0.92910
O3968       O  0.96721233  0.24344634  0.98161510    -0.40720
O3969       O  0.86881069  0.23655580  0.00186706    -0.77350
O3970       O  0.90078858  0.26398906  0.98859989    -0.96040
O3971       O  0.85319870  0.28186734  0.96187922    -0.89340
O3972       O  0.81666503  0.25227740  0.97597700    -0.92190
C3973       C  0.93824587  0.20654097  0.92667283     1.01570
C3974       C  0.83743300  0.20462315  0.90879148     1.14500
C3975       C  0.92605011  0.26778363  0.87536463     1.05280
O3976       O  0.95084393  0.28633498  0.95891447    -0.94340
O3977       O  0.89556510  0.30390360  0.97913830    -0.90080
O3978       O  0.86558679  0.29534191  0.01534567    -0.83230
C3979       C  0.88160617  0.30661101  0.00279697     1.11920
O3980       O  0.80653356  0.26710165  0.88090598    -0.96310
Zr3981     Zr  0.81848265  0.26838327  0.93190725     1.88940
O3982       O  0.80668105  0.28295066  0.00783412    -0.72960
O3983       O  0.89698569  0.30760007  0.91858129    -0.52230
O3984       O  0.81964241  0.29838864  0.91430300    -0.96900
O3985       O  0.77005787  0.25739936  0.92181729    -0.54120
O3986       O  0.78585256  0.28465609  0.96370496    -0.73480
C3987       C  0.78666641  0.28827251  0.99067994     0.98860
O3988       O  0.86958207  0.27028687  0.05450085    -0.62300
O3989       O  0.83363466  0.19428057  0.99422211    -0.57100
O3990       O  0.82602999  0.24836544  0.04080265    -0.93790
O3991       O  0.81836693  0.22141786  0.02173329    -0.92210
O3992       O  0.91485194  0.20738366  0.01066479    -0.92570
O3993       O  0.93624179  0.23822758  0.03051615    -0.91350
C3994       C  0.81740940  0.23246865  0.04237593     1.17710
H3995       H  0.88619777  0.20811636  0.95069606     0.33650
H3996       H  0.91343021  0.26975000  0.00214877     0.44500
H3997       H  0.79765342  0.25232698  0.98450118     0.38030
H3998       H  0.86735192  0.27198087  0.89394572     0.34510
H3999       H  0.97814148  0.23305757  0.98805259     0.26300
H4000       H  0.91705197  0.31128494  0.91429695     0.32230
H4001       H  0.79917336  0.30205317  0.91378088     0.38140
H4002       H  0.93470843  0.20266511  0.00991095     0.32600
H4003       H  0.81759556  0.18779017  0.98498918     0.31480
H4004       H  0.77476546  0.21277202  0.97804521     0.33160
H4005       H  0.75815777  0.26798438  0.91899986     0.32130
H4006       H  0.91964394  0.24240002  0.04197125     0.36130
H4007       H  0.87350971  0.25841682  0.06200387     0.28860
H4008       H  0.90069973  0.22310780  0.85397194     0.33090
H4009       H  0.79303744  0.27687666  0.87742772     0.35940
H4010       H  0.85140710  0.18855966  0.98718059     0.28550
H4011       H  0.88906198  0.27549252  0.05221974     0.41430
H4012       H  0.96292215  0.27827518  0.94749766     0.31480
H4013       H  0.97207719  0.24463343  0.96098559     0.39100
H4014       H  0.76324103  0.25244667  0.94028656     0.30950
H4015       H  0.88855677  0.30456674  0.89967346     0.31010
H4016       H  0.87311913  0.23450973  0.84815160     0.31280
Zr4017     Zr  0.72975973  0.01696085  0.91225240     2.17510
O4018       O  0.73152422  0.02776322  0.86278305    -0.51080
O4019       O  0.68647556  0.03536938  0.91075295    -0.74280
O4020       O  0.71031599  0.99708862  0.87663434    -0.81070
O4021       O  0.77514010  0.05456348  0.93649298    -0.82810
O4022       O  0.69884047  0.97109308  0.89719623    -0.78440
O4023       O  0.75792521  0.04114841  0.89652499    -0.90070
O4024       O  0.66307133  0.03599771  0.95345118    -0.76040
O4025       O  0.69434475  0.00299741  0.94101865    -0.85530
O4026       O  0.72911755  0.03343651  0.95557560    -0.85220
O4027       O  0.74906423  0.98791188  0.91704883    -0.71970
O4028       O  0.77870223  0.01615460  0.93037426    -0.84110
Zr4029     Zr  0.76123761  0.98928809  0.00912659     2.26420
Zr4030     Zr  0.71344859  0.97416452  0.94714385     2.06270
Zr4031     Zr  0.77748752  0.03235729  0.97447389     2.10050
Zr4032     Zr  0.69453201  0.01904520  0.98498798     1.78760
O4033       O  0.82893346  0.03672135  0.96620835    -0.92910
O4034       O  0.64663880  0.00638249  0.99165992    -0.40720
O4035       O  0.74263431  0.01826695  0.00444994    -0.77350
O4036       O  0.71223650  0.98984462  0.99172349    -0.96040
O4037       O  0.76143769  0.97303439  0.96608465    -0.89340
O4038       O  0.79635470  0.00350841  0.98055376    -0.92190
C4039       C  0.66574839  0.04050796  0.92703032     1.01570
C4040       C  0.76804362  0.05436207  0.90976360     1.14500
C4041       C  0.70083702  0.98139244  0.87559902     1.05280
O4042       O  0.66165826  0.97078017  0.95447823    -0.94340
O4043       O  0.71367286  0.95143323  0.98324789    -0.90080
O4044       O  0.74258172  0.96151896  0.01896153    -0.83230
C4045       C  0.72655789  0.95000345  0.00745378     1.11920
O4046       O  0.81565371  0.99347334  0.88965230    -0.96310
Zr4047     Zr  0.79673981  0.98684674  0.93737916     1.88940
O4048       O  0.80029156  0.96747759  0.01223224    -0.72960
O4049       O  0.71745510  0.94410764  0.93037685    -0.52230
O4050       O  0.79637542  0.96017837  0.90882459    -0.96900
O4051       O  0.84774950  0.99485068  0.93961958    -0.54120
O4052       O  0.81920707  0.96398444  0.96764854    -0.73480
C4053       C  0.81713279  0.95960956  0.99436496     0.98860
O4054       O  0.74420683  0.98762974  0.05876773    -0.62300
O4055       O  0.77560545  0.06130948  0.99604275    -0.57100
O4056       O  0.78934841  0.00548909  0.04311402    -0.93790
O4057       O  0.79133849  0.03331159  0.02589141    -0.92210
O4058       O  0.69252172  0.04833738  0.00525782    -0.92570
O4059       O  0.68004017  0.01832769  0.03529744    -0.91350
C4060       C  0.79501093  0.02174073  0.04578068     1.17710
H4061       H  0.72335065  0.04537503  0.95213940     0.33650
H4062       H  0.69965723  0.98386495  0.00510513     0.44500
H4063       H  0.81490829  0.00361688  0.99001078     0.38030
H4064       H  0.75090540  0.98209034  0.89879055     0.34510
H4065       H  0.63431769  0.01634275  0.99731799     0.26300
H4066       H  0.69814572  0.94098208  0.92276723     0.32230
H4067       H  0.81609594  0.95537725  0.91077956     0.38140
H4068       H  0.67166453  0.05095072  0.00685835     0.32600
H4069       H  0.79184233  0.06787499  0.98726778     0.31480
H4070       H  0.83764891  0.03655493  0.98563520     0.33160
H4071       H  0.85801054  0.98470064  0.93138733     0.32130
H4072       H  0.68738922  0.00705742  0.04269148     0.36130
H4073       H  0.73911182  0.99978004  0.06393404     0.28860
H4074       H  0.71140089  0.02760474  0.85556939     0.33090
H4075       H  0.83015347  0.98435114  0.88552292     0.35940
H4076       H  0.75799877  0.06675402  0.98801549     0.28550
H4077       H  0.72530323  0.98155968  0.05795022     0.41430
H4078       H  0.65278585  0.97522289  0.93655239     0.31480
H4079       H  0.64005958  0.00338451  0.97203175     0.39100
H4080       H  0.85289188  0.99456444  0.96025285     0.30950
H4081       H  0.73022099  0.94463637  0.91332509     0.31010
H4082       H  0.74186867  0.01885479  0.85136240     0.31280
Zr4083     Zr  0.88698537  0.01705242  0.26078349     2.17510
O4084       O  0.87100127  0.01998498  0.31050907    -0.51080
O4085       O  0.92472422  0.03968866  0.26323375    -0.74280
O4086       O  0.91851981  0.00221583  0.29439451    -0.81070
O4087       O  0.83620383  0.05261631  0.23376663    -0.82810
O4088       O  0.93151270  0.97636610  0.27436205    -0.78440
O4089       O  0.86080176  0.04225133  0.27253213    -0.90070
O4090       O  0.94410756  0.04319991  0.21877647    -0.76040
O4091       O  0.92375901  0.00521961  0.23160892    -0.85530
O4092       O  0.88428683  0.03329701  0.21716186    -0.85220
O4093       O  0.87292236  0.98703043  0.25696167    -0.71970
O4094       O  0.83834106  0.01376066  0.24313301    -0.84110
Zr4095     Zr  0.85879520  0.98826324  0.16407265     2.26420
Zr4096     Zr  0.90941153  0.97536312  0.22619750     2.06270
Zr4097     Zr  0.83631663  0.02954197  0.19852756     2.10050
Zr4098     Zr  0.92086609  0.02138736  0.18791380     1.78760
O4099       O  0.78455876  0.02956669  0.20775129    -0.92910
O4100       O  0.97167991  0.01333166  0.18717032    -0.40720
O4101       O  0.87312455  0.01805890  0.16832654    -0.77350
O4102       O  0.90760251  0.99125746  0.18153228    -0.96040
O4103       O  0.86156422  0.97207132  0.20748511    -0.89340
O4104       O  0.82187078  0.99979991  0.19332753    -0.92190
C4105       C  0.94186969  0.04741046  0.24542085     1.01570
C4106       C  0.84683512  0.05395056  0.25899479     1.14500
C4107       C  0.93165565  0.98753706  0.29502449     1.05280
O4108       O  0.96029931  0.97147048  0.21487676    -0.94340
O4109       O  0.90989987  0.95218786  0.19054124    -0.90080
O4110       O  0.87856706  0.96065939  0.15572614    -0.83230
C4111       C  0.89614271  0.94993174  0.16688642     1.11920
O4112       O  0.80789632  0.98771288  0.28627931    -0.96310
Zr4113     Zr  0.82515659  0.98361279  0.23724278     1.88940
O4114       O  0.81987663  0.96667923  0.16085897    -0.72960
O4115       O  0.90485312  0.94682678  0.24910742    -0.52230
O4116       O  0.82950266  0.95585534  0.26262060    -0.96900
O4117       O  0.77346799  0.98950522  0.23922042    -0.54120
O4118       O  0.80354573  0.96144967  0.20610794    -0.73480
C4119       C  0.80449102  0.95806402  0.17908061     0.98860
O4120       O  0.87660761  0.98527241  0.11486355    -0.62300
O4121       O  0.83131559  0.05828140  0.17638821    -0.57100
O4122       O  0.83168317  0.00442010  0.12846376    -0.93790
O4123       O  0.82373576  0.03128743  0.14739702    -0.92210
O4124       O  0.91836989  0.04895671  0.16184083    -0.92570
O4125       O  0.93929785  0.01864434  0.13914742    -0.91350
C4126       C  0.82327303  0.02029579  0.12655804     1.17710
H4127       H  0.88816609  0.04557615  0.21999596     0.33650
H4128       H  0.92078786  0.98604066  0.16797948     0.44500
H4129       H  0.80322569  0.99871024  0.18420006     0.38030
H4130       H  0.87356956  0.98147384  0.27560458     0.34510
H4131       H  0.98192327  0.02411453  0.18112601     0.26300
H4132       H  0.92480378  0.94352503  0.25441413     0.32230
H4133       H  0.81005931  0.95046611  0.26149028     0.38140
H4134       H  0.93842127  0.05350245  0.16185465     0.32600
H4135       H  0.81447788  0.06374748  0.18584553     0.31480
H4136       H  0.77614566  0.03562803  0.19092481     0.33160
H4137       H  0.76452279  0.97815531  0.24442889     0.32130
H4138       H  0.92308279  0.01349952  0.12814064     0.36130
H4139       H  0.88003688  0.99734352  0.10792506     0.28860
H4140       H  0.88769641  0.02483896  0.32118800     0.33090
H4141       H  0.79491155  0.97769160  0.29031048     0.35940
H4142       H  0.84824974  0.06512216  0.18300159     0.28550
H4143       H  0.89629778  0.98039621  0.11659123     0.41430
H4144       H  0.97062059  0.97949454  0.22805141     0.31480
H4145       H  0.97702061  0.01184673  0.20762664     0.39100
H4146       H  0.76748248  0.99145560  0.21906106     0.30950
H4147       H  0.89506798  0.94908076  0.26764059     0.31010
H4148       H  0.86860950  0.00790184  0.31781547     0.31280
Zr4149     Zr  0.65545024  0.01652465  0.75708365     2.17510
O4150       O  0.64097739  0.02294398  0.80640339    -0.51080
O4151       O  0.70010620  0.03414750  0.76113422    -0.74280
O4152       O  0.67643257  0.99713092  0.79207790    -0.81070
O4153       O  0.61679563  0.05590480  0.73024147    -0.82810
O4154       O  0.67897726  0.96972107  0.77358028    -0.78440
O4155       O  0.63814552  0.04453698  0.77003527    -0.90070
O4156       O  0.72390357  0.03484492  0.71859297    -0.76040
O4157       O  0.68932258  0.00032150  0.72997032    -0.85530
O4158       O  0.65973990  0.03261682  0.71356308    -0.85220
O4159       O  0.63231228  0.98842735  0.75174765    -0.71970
O4160       O  0.60710715  0.01783190  0.73761170    -0.84110
Zr4161     Zr  0.62317657  0.98917246  0.65939268     2.26420
Zr4162     Zr  0.66617318  0.97245775  0.72289072     2.06270
Zr4163     Zr  0.61212211  0.03329660  0.69315045     2.10050
Zr4164     Zr  0.69353077  0.01649804  0.68636240     1.78760
O4165       O  0.56047108  0.03760951  0.69967998    -0.92910
O4166       O  0.74083720  0.00272842  0.68579492    -0.40720
O4167       O  0.64602120  0.01725966  0.66500955    -0.77350
O4168       O  0.67162168  0.98805598  0.67858732    -0.96040
O4169       O  0.61865243  0.97343103  0.70288707    -0.89340
O4170       O  0.58946218  0.00542332  0.68658475    -0.92190
C4171       C  0.72110843  0.03949455  0.74508649     1.01570
C4172       C  0.62619559  0.05693241  0.75623484     1.14500
C4173       C  0.68130182  0.98076071  0.79413826     1.05280
O4174       O  0.71727197  0.96652476  0.71571928    -0.94340
O4175       O  0.66144726  0.94936345  0.68685477    -0.90080
O4176       O  0.63506419  0.95961154  0.64933184    -0.83230
C4177       C  0.64908725  0.94764517  0.66224875     1.11920
O4178       O  0.56799286  0.99420056  0.77938914    -0.96310
Zr4179     Zr  0.58504727  0.98952403  0.73043141     1.88940
O4180       O  0.57809189  0.97193765  0.65559168    -0.72960
O4181       O  0.65931252  0.94277851  0.74088715    -0.52230
O4182       O  0.58103355  0.96116528  0.75407649    -0.96900
O4183       O  0.53691782  0.00229709  0.73188821    -0.54120
O4184       O  0.55471844  0.97149519  0.69846552    -0.73480
C4185       C  0.55718015  0.96684669  0.67201575     0.98860
O4186       O  0.64203891  0.98515212  0.61080547    -0.62300
O4187       O  0.61126636  0.06236547  0.67169320    -0.57100
O4188       O  0.60068428  0.00752515  0.62417669    -0.93790
O4189       O  0.60479617  0.03533846  0.64082609    -0.92210
O4190       O  0.69850988  0.04436370  0.66143781    -0.92570
O4191       O  0.71229116  0.01293192  0.63786036    -0.91350
C4192       C  0.59966198  0.02407888  0.62091582     1.17710
H4193       H  0.66695913  0.04431949  0.71667845     0.33650
H4194       H  0.68376445  0.98143670  0.66575308     0.44500
H4195       H  0.57125901  0.00635862  0.67658674     0.38030
H4196       H  0.62968267  0.98297337  0.77028364     0.34510
H4197       H  0.75440347  0.01223352  0.68045875     0.26300
H4198       H  0.67814584  0.93931303  0.74915059     0.32230
H4199       H  0.56042085  0.95785775  0.75228151     0.38140
H4200       H  0.71936626  0.04718920  0.66249701     0.32600
H4201       H  0.59547181  0.06860609  0.68161730     0.31480
H4202       H  0.55295623  0.03955367  0.68001650     0.33160
H4203       H  0.52388414  0.99244609  0.73682549     0.32130
H4204       H  0.69587914  0.00807631  0.62678248     0.36130
H4205       H  0.64811385  0.99693487  0.60430172     0.28860
H4206       H  0.65908661  0.02458730  0.81742337     0.33090
H4207       H  0.55204449  0.98572543  0.78232716     0.35940
H4208       H  0.62921761  0.06815103  0.67835131     0.28550
H4209       H  0.66051270  0.97885207  0.61320754     0.41430
H4210       H  0.72652623  0.96979410  0.73413328     0.31480
H4211       H  0.74520717  0.00029493  0.70623626     0.39100
H4212       H  0.53215595  0.00506195  0.71165697     0.30950
H4213       H  0.64614753  0.94384729  0.75755095     0.31010
H4214       H  0.63226610  0.01203358  0.81400267     0.31280
Zr4215     Zr  0.51650998  0.02019294  0.40412184     2.17510
O4216       O  0.52270493  0.02771626  0.35338429    -0.51080
O4217       O  0.97846819  0.04317800  0.40430670    -0.74280
O4218       O  0.98835719  0.00279614  0.37057966    -0.81070
O4219       O  0.56295898  0.05591797  0.43254602    -0.82810
O4220       O  0.97573077  0.97691721  0.39113845    -0.78440
O4221       O  0.55584237  0.03941154  0.39367519    -0.90070
O4222       O  0.95719350  0.04399719  0.44819859    -0.76040
O4223       O  0.98193383  0.00611582  0.43378663    -0.85530
O4224       O  0.51866392  0.03593001  0.44839629    -0.85220
O4225       O  0.53307757  0.99038812  0.40783105    -0.71970
O4226       O  0.56555850  0.01746843  0.42167499    -0.84110
Zr4227     Zr  0.54807414  0.98990955  0.50073801     2.26420
Zr4228     Zr  0.49858697  0.97656538  0.43892154     2.06270
Zr4229     Zr  0.56729125  0.03262309  0.46675811     2.10050
Zr4230     Zr  0.98348862  0.02216337  0.47752960     1.78760
O4231       O  0.61870867  0.03311972  0.45579091    -0.92910
O4232       O  0.93334097  0.01247138  0.47850150    -0.40720
O4233       O  0.53159100  0.01943344  0.49678184    -0.77350
O4234       O  0.49904214  0.99223017  0.48354662    -0.96040
O4235       O  0.54675224  0.97420742  0.45684384    -0.89340
O4236       O  0.58363345  0.00333473  0.47131993    -0.92190
C4237       C  0.95974443  0.04953280  0.42210983     1.01570
C4238       C  0.55784058  0.05419678  0.40585821     1.14500
C4239       C  0.97566713  0.98791160  0.37016403     1.05280
O4240       O  0.94839338  0.97008528  0.45033469    -0.94340
O4241       O  0.00121366  0.95293879  0.47469544    -0.90080
O4242       O  0.53220329  0.96077648  0.51037803    -0.83230
C4243       C  0.51493130  0.95001841  0.49832697     1.11920
O4244       O  0.59497987  0.98988673  0.37627983    -0.96310
Zr4245     Zr  0.58147273  0.98782513  0.42685228     1.88940
O4246       O  0.59173800  0.97215459  0.50276978    -0.72960
O4247       O  0.50635416  0.94870674  0.41491241    -0.52230
O4248       O  0.57914388  0.95840995  0.40697866    -0.96900
O4249       O  0.63089282  0.99789117  0.41900713    -0.54120
O4250       O  0.61211181  0.97012271  0.45846971    -0.73480
C4251       C  0.61108965  0.96639367  0.48540783     0.98860
O4252       O  0.53039633  0.98531508  0.54970711    -0.62300
O4253       O  0.57815424  0.06089893  0.48838410    -0.57100
O4254       O  0.57336860  0.00717747  0.53624879    -0.93790
O4255       O  0.57701091  0.03471054  0.51828319    -0.92210
O4256       O  0.48614985  0.04925817  0.50479615    -0.92570
O4257       O  0.96566469  0.01843719  0.52637991    -0.91350
C4258       C  0.57909314  0.02348502  0.53869765     1.17710
H4259       H  0.51388041  0.04812798  0.44625494     0.33650
H4260       H  0.98621099  0.98645503  0.49692939     0.44500
H4261       H  0.60254561  0.00296494  0.48003505     0.38030
H4262       H  0.53280798  0.98490191  0.38916186     0.34510
H4263       H  0.92235463  0.02284515  0.48483387     0.26300
H4264       H  0.98681414  0.94439390  0.40990379     0.32230
H4265       H  0.59929314  0.95414949  0.40744484     0.38140
H4266       H  0.96611527  0.05376066  0.50485967     0.32600
H4267       H  0.59360058  0.06612844  0.47637976     0.31480
H4268       H  0.62823927  0.03448706  0.47470603     0.33160
H4269       H  0.64184765  0.98721190  0.41415646     0.32130
H4270       H  0.98200567  0.01315883  0.53695201     0.36130
H4271       H  0.52689595  0.99712887  0.55757101     0.28860
H4272       H  0.50320215  0.02988432  0.34544149     0.33090
H4273       H  0.60816998  0.97998262  0.37269196     0.35940
H4274       H  0.56091663  0.06819368  0.48478550     0.28550
H4275       H  0.51071991  0.98036520  0.54760126     0.41430
H4276       H  0.93716341  0.97865364  0.43900314     0.31480
H4277       H  0.92796233  0.01100272  0.45805540     0.39100
H4278       H  0.63806930  0.00117807  0.43829488     0.30950
H4279       H  0.51535738  0.95172365  0.39624349     0.31010
H4280       H  0.52964354  0.01699840  0.34374776     0.31280
Zr4281     Zr  0.51028043  0.11480808  0.30841734     2.17510
O4282       O  0.98242376  0.11422057  0.35298173    -0.51080
O4283       O  0.48756247  0.09387326  0.27599080    -0.74280
O4284       O  0.97156854  0.13501675  0.29662028    -0.81070
O4285       O  0.54634187  0.09752914  0.35457102    -0.82810
O4286       O  0.99123558  0.16218756  0.29413142    -0.78440
O4287       O  0.50729708  0.08732864  0.33415749    -0.90070
O4288       O  0.51949467  0.09077540  0.23917564    -0.76040
O4289       O  0.52316825  0.12890022  0.26418336    -0.85530
O4290       O  0.54853148  0.09732088  0.28896914    -0.85220
O4291       O  0.52758484  0.14358822  0.32090500    -0.71970
O4292       O  0.54945545  0.11583607  0.34194034    -0.84110
Zr4293     Zr  0.61577377  0.14143620  0.29250901     2.26420
Zr4294     Zr  0.54050640  0.15779359  0.27606207     2.06270
Zr4295     Zr  0.58705579  0.09868609  0.32264815     2.10050
Zr4296     Zr  0.56074229  0.11119609  0.24531076     1.78760
O4297       O  0.60947326  0.08731328  0.36630303    -0.92910
O4298       O  0.53764215  0.12064087  0.20093417    -0.40720
O4299       O  0.60069809  0.11243756  0.27853254    -0.77350
O4300       O  0.57831361  0.14031462  0.25633189    -0.96040
O4301       O  0.57763041  0.15843886  0.31181185    -0.89340
O4302       O  0.60306884  0.12690473  0.33585133    -0.92190
C4303       C  0.49608147  0.08651625  0.25264941     1.01570
C4304       C  0.52770029  0.08540709  0.35208958     1.14500
C4305       C  0.97120818  0.15147581  0.30187178     1.05280
O4306       O  0.52002372  0.15927504  0.22795167    -0.94340
O4307       O  0.57759504  0.17916635  0.25790366    -0.90080
O4308       O  0.62247894  0.16916243  0.26871230    -0.83230
C4309       C  0.60554484  0.18069253  0.25810576     1.11920
O4310       O  0.52404475  0.14547481  0.38850618    -0.96310
Zr4311     Zr  0.56477383  0.14384828  0.35532291     1.88940
O4312       O  0.63062740  0.16291332  0.32926706    -0.72960
O4313       O  0.52888042  0.18866801  0.28113899    -0.52230
O4314       O  0.55687216  0.17485964  0.36387911    -0.96900
O4315       O  0.57110873  0.13096481  0.40282939    -0.54120
O4316       O  0.61176996  0.15199818  0.36990572    -0.73480
C4317       C  0.62658224  0.16333517  0.35662093     0.98860
O4318       O  0.65659309  0.14155231  0.25935632    -0.62300
O4319       O  0.58526851  0.06769997  0.31031593    -0.57100
O4320       O  0.65537733  0.12431741  0.31098409    -0.93790
O4321       O  0.63860477  0.09677795  0.31955786    -0.92210
O4322       O  0.58480073  0.08370491  0.23481534    -0.92570
O4323       O  0.59368871  0.11311233  0.20465006    -0.91350
C4324       C  0.65846602  0.10832900  0.31856651     1.17710
H4325       H  0.54287119  0.08527386  0.28641222     0.33650
H4326       H  0.58530820  0.14563321  0.23880464     0.44500
H4327       H  0.61881219  0.12534095  0.34917823     0.38030
H4328       H  0.51345921  0.14957978  0.33234514     0.34510
H4329       H  0.53623958  0.10992669  0.18910487     0.26300
H4330       H  0.51098348  0.19044256  0.26988321     0.32230
H4331       H  0.56419568  0.17695410  0.38355993     0.38140
H4332       H  0.57238288  0.07795274  0.22028944     0.32600
H4333       H  0.60027775  0.06201570  0.32216843     0.31480
H4334       H  0.62040261  0.07677458  0.36072173     0.33160
H4335       H  0.57989775  0.14033827  0.41463089     0.32130
H4336       H  0.61200540  0.11747914  0.21301308     0.36130
H4337       H  0.66167629  0.12909930  0.25678769     0.28860
H4338       H  0.96549935  0.10654870  0.34979338     0.33090
H4339       H  0.52853819  0.15516874  0.40185493     0.35940
H4340       H  0.56680911  0.06334389  0.31836434     0.28550
H4341       H  0.64831754  0.14493900  0.24054093     0.41430
H4342       H  0.49908010  0.15727555  0.23079798     0.31480
H4343       H  0.51743671  0.12318126  0.20639582     0.39100
H4344       H  0.58671094  0.12229716  0.40032391     0.30950
H4345       H  0.52305284  0.19013056  0.30146487     0.31010
H4346       H  0.97496316  0.12617701  0.35582207     0.31280
Zr4347     Zr  0.88252804  0.13866260  0.81483173     2.17510
O4348       O  0.92205078  0.14359957  0.84801519    -0.51080
O4349       O  0.90424945  0.16134594  0.78399476    -0.74280
O4350       O  0.91744602  0.11738694  0.79719699    -0.81070
O4351       O  0.84546785  0.17462774  0.83742025    -0.82810
O4352       O  0.90009250  0.08993578  0.79758974    -0.78440
O4353       O  0.88121542  0.15874903  0.85530043    -0.90070
O4354       O  0.87499276  0.16273226  0.74487112    -0.76040
O4355       O  0.86890185  0.12406342  0.77123712    -0.85530
O4356       O  0.84478174  0.15607084  0.79473207    -0.85220
O4357       O  0.86582747  0.10950836  0.82732805    -0.71970
O4358       O  0.84442201  0.13813858  0.84977419    -0.84110
Zr4359     Zr  0.77553618  0.11285586  0.79836326     2.26420
Zr4360     Zr  0.85032385  0.09520144  0.78276119     2.06270
Zr4361     Zr  0.80638772  0.15471643  0.82912312     2.10050
Zr4362     Zr  0.83273102  0.14229994  0.75139914     1.78760
O4363       O  0.79816555  0.15752569  0.88064236    -0.92910
O4364       O  0.85641349  0.13198961  0.70795400    -0.40720
O4365       O  0.79247867  0.14158590  0.78462025    -0.77350
O4366       O  0.81354687  0.11337928  0.76257567    -0.96040
O4367       O  0.81395748  0.09572404  0.81866741    -0.89340
O4368       O  0.79065152  0.12634486  0.84290349    -0.92190
C4369       C  0.89746650  0.16787801  0.75937074     1.01570
C4370       C  0.86382691  0.17160467  0.85697675     1.14500
C4371       C  0.91893589  0.10137349  0.80500182     1.05280
O4372       O  0.87005524  0.09136318  0.73473733    -0.94340
O4373       O  0.81194408  0.07451367  0.76389480    -0.90080
O4374       O  0.76752114  0.08502023  0.77502768    -0.83230
C4375       C  0.78385231  0.07331325  0.76408199     1.11920
O4376       O  0.86396152  0.11571889  0.90053992    -0.96310
Zr4377     Zr  0.82935004  0.10953551  0.86235630     1.88940
O4378       O  0.74821609  0.09144346  0.82729509    -0.72960
O4379       O  0.85815610  0.06450017  0.79431329    -0.52230
O4380       O  0.84814880  0.08068057  0.87412002    -0.96900
O4381       O  0.80634008  0.11406571  0.90878563    -0.54120
O4382       O  0.78545715  0.09590715  0.85227386    -0.73480
C4383       C  0.76253083  0.08744597  0.84953105     0.98860
O4384       O  0.73888270  0.11703393  0.76150521    -0.62300
O4385       O  0.78576878  0.18383385  0.82369466    -0.57100
O4386       O  0.73762646  0.13067981  0.81851198    -0.93790
O4387       O  0.75518671  0.15810084  0.82592029    -0.92210
O4388       O  0.80878707  0.16980442  0.74055592    -0.92570
O4389       O  0.80039973  0.14081755  0.71023297    -0.91350
C4390       C  0.73501404  0.14675566  0.82563933     1.17710
H4391       H  0.85000584  0.16798883  0.79026937     0.33650
H4392       H  0.80649648  0.10817654  0.74501020     0.44500
H4393       H  0.77520911  0.12725923  0.85678898     0.38030
H4394       H  0.87997052  0.10327475  0.83841390     0.34510
H4395       H  0.85853620  0.14254104  0.69576826     0.26300
H4396       H  0.87464670  0.06083085  0.78224169     0.32230
H4397       H  0.84085705  0.07813947  0.89368409     0.38140
H4398       H  0.82306219  0.17659877  0.72925437     0.32600
H4399       H  0.77981615  0.18742836  0.84323607     0.31480
H4400       H  0.77701606  0.15891026  0.88260266     0.33160
H4401       H  0.81205263  0.10391561  0.92068373     0.32130
H4402       H  0.78160724  0.13711854  0.71842124     0.36130
H4403       H  0.73766067  0.12986185  0.75901539     0.28860
H4404       H  0.93523269  0.15175725  0.83793183     0.33090
H4405       H  0.86785314  0.10439218  0.91004104     0.35940
H4406       H  0.80205798  0.19169082  0.81873800     0.28550
H4407       H  0.74798241  0.11287467  0.74354164     0.41430
H4408       H  0.89011549  0.09581551  0.73607143     0.31480
H4409       H  0.87637216  0.12919891  0.71397351     0.39100
H4410       H  0.78543738  0.11235580  0.90528795     0.30950
H4411       H  0.86564378  0.06442112  0.81424827     0.31010
H4412       H  0.93206118  0.13230099  0.84914125     0.31280
Zr4413     Zr  0.88248465  0.11703103  0.36187786     2.17510
O4414       O  0.91912649  0.11625763  0.32459774    -0.51080
O4415       O  0.90637037  0.09424984  0.39071093    -0.74280
O4416       O  0.91793085  0.13845861  0.37832226    -0.81070
O4417       O  0.84063308  0.08061502  0.33011147    -0.82810
O4418       O  0.89978089  0.16556728  0.37635093    -0.78440
O4419       O  0.88060844  0.09701061  0.32193114    -0.90070
O4420       O  0.87795647  0.09189034  0.43032696    -0.76040
O4421       O  0.87045381  0.13137026  0.40596887    -0.85530
O4422       O  0.84624035  0.09866269  0.38241346    -0.85220
O4423       O  0.86428952  0.14571019  0.34992445    -0.71970
O4424       O  0.84274465  0.11662562  0.32923640    -0.84110
Zr4425     Zr  0.77702569  0.14176012  0.37992311     2.26420
Zr4426     Zr  0.85091244  0.15996633  0.39479783     2.06270
Zr4427     Zr  0.80580110  0.09954991  0.35084022     2.10050
Zr4428     Zr  0.83552465  0.11228934  0.42638031     1.78760
O4429       O  0.78889784  0.09568250  0.30169516    -0.92910
O4430       O  0.86101030  0.12209922  0.46923257    -0.40720
O4431       O  0.79384426  0.11326018  0.39505418    -0.77350
O4432       O  0.81528653  0.14107048  0.41552343    -0.96040
O4433       O  0.81380653  0.15943412  0.35926918    -0.89340
O4434       O  0.78963988  0.12748020  0.33650463    -0.92190
C4435       C  0.90018948  0.08719493  0.41514235     1.01570
C4436       C  0.86295004  0.08476770  0.31554148     1.14500
C4437       C  0.91906104  0.15430448  0.36958779     1.05280
O4438       O  0.87106848  0.16211793  0.44296629    -0.94340
O4439       O  0.81188815  0.18067778  0.41208384    -0.90080
O4440       O  0.76743359  0.16933208  0.40289116    -0.83230
C4441       C  0.78374963  0.18154372  0.41248021     1.11920
O4442       O  0.86764293  0.14484557  0.28259931    -0.96310
Zr4443     Zr  0.82694463  0.14472646  0.31594024     1.88940
O4444       O  0.76173586  0.16358545  0.34350225    -0.72960
O4445       O  0.86105927  0.19108742  0.38942372    -0.52230
O4446       O  0.83611770  0.17555770  0.30629127    -0.96900
O4447       O  0.81837046  0.13302520  0.26799057    -0.54120
O4448       O  0.78008500  0.15359085  0.30206946    -0.73480
C4449       C  0.76534556  0.16456467  0.31606455     0.98860
O4450       O  0.73669839  0.14062116  0.41359523    -0.62300
O4451       O  0.79151353  0.06999180  0.36436006    -0.57100
O4452       O  0.73802648  0.12412643  0.36106889    -0.93790
O4453       O  0.75447207  0.09643515  0.35454716    -0.92210
O4454       O  0.81180939  0.08461881  0.43751403    -0.92570
O4455       O  0.80522325  0.11335734  0.46907163    -0.91350
C4456       C  0.73482696  0.10803712  0.35418348     1.17710
H4457       H  0.85207866  0.08664125  0.38455806     0.33650
H4458       H  0.80832806  0.14617576  0.43317336     0.44500
H4459       H  0.77379855  0.12606157  0.32323668     0.38030
H4460       H  0.87791158  0.15202565  0.33819679     0.34510
H4461       H  0.86357104  0.11139164  0.48092806     0.26300
H4462       H  0.87894843  0.19327939  0.40052527     0.32230
H4463       H  0.82833117  0.17756715  0.28675818     0.38140
H4464       H  0.82623248  0.07794937  0.44870908     0.32600
H4465       H  0.78968578  0.06365155  0.34591097     0.31480
H4466       H  0.77458385  0.08605630  0.30273035     0.33160
H4467       H  0.81259569  0.14323285  0.25623884     0.32130
H4468       H  0.78626933  0.11745068  0.46194639     0.36130
H4469       H  0.73205879  0.12804288  0.41573736     0.28860
H4470       H  0.93355837  0.12467155  0.33134619     0.33090
H4471       H  0.86540311  0.15546816  0.27065058     0.35940
H4472       H  0.80881044  0.06492507  0.37362319     0.28550
H4473       H  0.74517437  0.14383987  0.43240342     0.41430
H4474       H  0.89202973  0.16020595  0.44032128     0.31480
H4475       H  0.88072674  0.12504608  0.46252480     0.39100
H4476       H  0.80053064  0.12593944  0.26981897     0.30950
H4477       H  0.86663379  0.19269111  0.36903978     0.31010
H4478       H  0.91040679  0.12232790  0.30790732     0.31280
Zr4479     Zr  0.50916861  0.13942493  0.86281891     2.17510
O4480       O  0.97724287  0.13622632  0.82128905    -0.51080
O4481       O  0.48681647  0.16144378  0.89383273    -0.74280
O4482       O  0.97204691  0.11904725  0.87947965    -0.81070
O4483       O  0.54844141  0.17688364  0.84167655    -0.82810
O4484       O  0.98966535  0.09155910  0.87985233    -0.78440
O4485       O  0.50815929  0.16305706  0.82793429    -0.90070
O4486       O  0.51628349  0.16273023  0.93301374    -0.76040
O4487       O  0.52154783  0.12474624  0.90669200    -0.85530
O4488       O  0.54704745  0.15653228  0.88380855    -0.85220
O4489       O  0.52592392  0.11061463  0.85068862    -0.71970
O4490       O  0.54802890  0.14001073  0.82876212    -0.84110
Zr4491     Zr  0.61374146  0.11340231  0.87908737     2.26420
Zr4492     Zr  0.53942155  0.09607802  0.89504660     2.06270
Zr4493     Zr  0.58616523  0.15615366  0.85045004     2.10050
Zr4494     Zr  0.55812080  0.14251942  0.92724352     1.78760
O4495       O  0.59844568  0.15734764  0.79954700    -0.92910
O4496       O  0.53382732  0.13203289  0.97040372    -0.40720
O4497       O  0.59855307  0.14201257  0.89448667    -0.77350
O4498       O  0.57659393  0.11379311  0.91553564    -0.96040
O4499       O  0.57595537  0.09638900  0.85888943    -0.89340
O4500       O  0.60118116  0.12809273  0.83591680    -0.92190
C4501       C  0.49397371  0.16787201  0.91846297     1.01570
C4502       C  0.52803688  0.17440708  0.82386574     1.14500
C4503       C  0.97035633  0.10277528  0.87310667     1.05280
O4504       O  0.51981475  0.09271844  0.94327501    -0.94340
O4505       O  0.57642553  0.07497400  0.91283522    -0.90080
O4506       O  0.62095276  0.08573801  0.90211213    -0.83230
C4507       C  0.60434712  0.07389190  0.91240304     1.11920
O4508       O  0.52230542  0.11086263  0.78228118    -0.96310
Zr4509     Zr  0.56273086  0.11145735  0.81591358     1.88940
O4510       O  0.62802126  0.09179133  0.84244601    -0.72960
O4511       O  0.52940713  0.06537752  0.88510754    -0.52230
O4512       O  0.55345451  0.08055054  0.80730524    -0.96900
O4513       O  0.57003986  0.12193471  0.76694336    -0.54120
O4514       O  0.60947133  0.10259993  0.80163371    -0.73480
C4515       C  0.62390868  0.09122026  0.81510913     0.98860
O4516       O  0.65495309  0.11312211  0.91181334    -0.62300
O4517       O  0.60676111  0.18542791  0.85493198    -0.57100
O4518       O  0.65322048  0.13092398  0.86133715    -0.93790
O4519       O  0.63732206  0.15892007  0.85780338    -0.92210
O4520       O  0.58170867  0.17003084  0.93940294    -0.92570
O4521       O  0.59037622  0.14025307  0.96838305    -0.91350
C4522       C  0.65687714  0.14725799  0.85660109     1.17710
H4523       H  0.54169354  0.16838924  0.88821283     0.33650
H4524       H  0.58370993  0.10837650  0.93290119     0.44500
H4525       H  0.61725117  0.12945873  0.82289641     0.38030
H4526       H  0.51142426  0.10435106  0.84002138     0.34510
H4527       H  0.53223711  0.14247193  0.98283687     0.26300
H4528       H  0.51250368  0.06228982  0.89714566     0.32230
H4529       H  0.55761635  0.07889828  0.78662358     0.38140
H4530       H  0.56886962  0.17547961  0.95380656     0.32600
H4531       H  0.60894844  0.18981672  0.83503018     0.31480
H4532       H  0.61889883  0.16115803  0.79908118     0.33160
H4533       H  0.57469723  0.11134983  0.75566976     0.32130
H4534       H  0.60894315  0.13631362  0.96013177     0.36130
H4535       H  0.66004127  0.12556396  0.91483523     0.28860
H4536       H  0.97342054  0.12358128  0.82014560     0.33090
H4537       H  0.50990629  0.10097870  0.78846351     0.35940
H4538       H  0.59148330  0.19275862  0.86351730     0.28550
H4539       H  0.64694002  0.10942069  0.93060320     0.41430
H4540       H  0.49933458  0.09621622  0.94150198     0.31480
H4541       H  0.51374049  0.12959158  0.96428418     0.39100
H4542       H  0.58837300  0.12861598  0.76755802     0.30950
H4543       H  0.52218988  0.06508523  0.86507989     0.31010
H4544       H  0.98911657  0.13828793  0.80390893     0.31280
C4545       C  0.93689997  0.09731141  0.82912371    -0.13020
C4546       C  0.95010642  0.09778011  0.85140922    -0.14580
C4547       C  0.68451681  0.15231848  0.84693690    -0.13020
C4548       C  0.70782697  0.15197104  0.83615037    -0.14580
C4549       C  0.68556014  0.10355998  0.32976256    -0.13020
C4550       C  0.70795007  0.10331983  0.34231121    -0.14580
C4551       C  0.95133044  0.15731392  0.32351393    -0.13020
C4552       C  0.93770265  0.15819041  0.34563071    -0.14580
C4553       C  0.94057739  0.06434231  0.41132249    -0.16180
C4554       C  0.91926849  0.07251999  0.42663373    -0.31360
H4555       H  0.94437534  0.06870197  0.38941486     0.12840
H4556       H  0.91500561  0.06801139  0.44836575     0.13420
C4557       C  0.55228822  0.06964338  0.38926316    -0.16180
C4558       C  0.53129905  0.06985977  0.36939935    -0.31360
H4559       H  0.56405328  0.08141614  0.39508255     0.12840
H4560       H  0.51738426  0.05870539  0.36572289     0.13420
C4561       C  0.59300644  0.02976096  0.59224230    -0.13020
C4562       C  0.58744252  0.02926339  0.56690167    -0.14580
C4563       C  0.63348015  0.07609744  0.79832457    -0.16180
C4564       C  0.62276645  0.07346164  0.77156613    -0.31360
H4565       H  0.64632532  0.06616645  0.80898798     0.12840
H4566       H  0.60970154  0.08335809  0.76107782     0.13420
C4567       C  0.76851060  0.05778697  0.75034026    -0.16180
C4568       C  0.74118248  0.05295689  0.75846994    -0.31360
H4569       H  0.77930942  0.05064832  0.73335398     0.12840
H4570       H  0.73203951  0.05971121  0.77684177     0.13420
C4571       C  0.84457325  0.07016637  0.27409251    -0.16180
C4572       C  0.86757623  0.07516625  0.28956508    -0.31360
H4573       H  0.82344471  0.07593137  0.27682968     0.12840
H4574       H  0.88902789  0.06999700  0.28545484     0.13420
C4575       C  0.97838790  0.07181558  0.24068028    -0.16180
C4576       C  0.95940938  0.06239189  0.25668481    -0.31360
H4577       H  0.48229932  0.06805117  0.21847131     0.12840
H4578       H  0.95641201  0.06583202  0.27912803     0.13420
C4579       C  0.94755866  0.98375125  0.32110238    -0.13020
C4580       C  0.96019554  0.98378942  0.34396747    -0.14580
C4581       C  0.68848809  0.97482168  0.82231148    -0.13020
C4582       C  0.69330141  0.97517462  0.84767486    -0.14580
C4583       C  0.81322017  0.02586732  0.09863183    -0.13020
C4584       C  0.80550386  0.02669737  0.07379398    -0.14580
C4585       C  0.61931585  0.05825781  0.92469452    -0.16180
C4586       C  0.64543916  0.05343071  0.91417420    -0.31360
H4587       H  0.60973955  0.05129451  0.94269370     0.12840
H4588       H  0.65334396  0.05998206  0.89494598     0.13420
C4589       C  0.75501012  0.07327418  0.86930666    -0.16180
C4590       C  0.77158583  0.07024553  0.89262598    -0.31360
H4591       H  0.73720685  0.06464972  0.86363477     0.12840
H4592       H  0.78837154  0.07936616  0.89891300     0.13420
C4593       C  0.83793556  0.19097603  0.88793686    -0.16180
C4594       C  0.86246698  0.18235087  0.88265971    -0.31360
H4595       H  0.81953050  0.19017782  0.87364350     0.12840
H4596       H  0.88105177  0.18344193  0.89682364     0.13420
C4597       C  0.97613401  0.18251762  0.93079105    -0.16180
C4598       C  0.95601972  0.19151988  0.91552862    -0.31360
H4599       H  0.48057643  0.18645590  0.95284581     0.12840
H4600       H  0.95214687  0.18769463  0.89338329     0.13420
C4601       C  0.62551220  0.18076497  0.40039004    -0.16180
C4602       C  0.63639422  0.17830542  0.37366303    -0.31360
H4603       H  0.61249598  0.17073824  0.41079018     0.12840
H4604       H  0.64915124  0.18837933  0.36308477     0.13420
C4605       C  0.74121403  0.20193114  0.41609635    -0.16180
C4606       C  0.76832950  0.19731432  0.42507316    -0.31360
H4607       H  0.73239941  0.19479642  0.39790365     0.12840
H4608       H  0.77889475  0.20483419  0.44182792     0.13420
C4609       C  0.94370772  0.27126463  0.84989662    -0.13020
C4610       C  0.95793861  0.27090618  0.82776786    -0.14580
C4611       C  0.59025008  0.22516050  0.57801186    -0.13020
C4612       C  0.58455076  0.22537369  0.60335446    -0.14580
C4613       C  0.91616991  0.18249874  0.74690625    -0.16180
C4614       C  0.93774031  0.19092957  0.76158038    -0.31360
H4615       H  0.91147551  0.18671234  0.72511687     0.12840
H4616       H  0.94193438  0.18680028  0.78352913     0.13420
C4617       C  0.52929823  0.18407922  0.79701388    -0.16180
C4618       C  0.55530653  0.18853140  0.78669567    -0.31360
H4619       H  0.50958122  0.18751578  0.78580417     0.12840
H4620       H  0.57487247  0.18525772  0.79807248     0.13420
C4621       C  0.79819714  0.22650127  0.09433917    -0.13020
C4622       C  0.80635538  0.22694653  0.06974675    -0.14580
C4623       C  0.69438550  0.27987458  0.32227337    -0.13020
C4624       C  0.68920528  0.27969183  0.34772034    -0.14580
C4625       C  0.62002601  0.19653811  0.24510597    -0.16180
C4626       C  0.64608625  0.20211134  0.25517532    -0.31360
H4627       H  0.60986493  0.20323439  0.22720807     0.12840
H4628       H  0.65442132  0.19575986  0.27436105     0.13420
C4629       C  0.75470257  0.17972328  0.29963955    -0.16180
C4630       C  0.76483373  0.18277453  0.27271272    -0.31360
H4631       H  0.74152079  0.18933798  0.31059664     0.12840
H4632       H  0.77843772  0.17323228  0.26208441     0.13420
C4633       C  0.65212117  0.93100926  0.64699620    -0.16180
C4634       C  0.64003749  0.92839249  0.62089136    -0.31360
H4635       H  0.66695989  0.92151930  0.65602631     0.12840
H4636       H  0.62545355  0.93796892  0.61167507     0.13420
C4637       C  0.63192415  0.95378257  0.49797209    -0.16180
C4638       C  0.65681048  0.94802882  0.48598466    -0.31360
H4639       H  0.62538738  0.94823682  0.51851840     0.12840
H4640       H  0.66521068  0.95395230  0.46646950     0.13420
C4641       C  0.82201388  0.91101632  0.57043713    -0.13020
C4642       C  0.83747582  0.91147327  0.59132772    -0.14580
C4643       C  0.59087506  0.85672104  0.57310909    -0.13020
C4644       C  0.56679909  0.85659207  0.58183486    -0.14580
C4645       C  0.52197987  0.92969003  0.53918509    -0.16180
C4646       C  0.50988235  0.93333949  0.51333911    -0.31360
H4647       H  0.03746640  0.93862556  0.54884369     0.12840
H4648       H  0.49385382  0.92458386  0.50412687     0.13420
C4649       C  0.53629259  0.95380185  0.65932241    -0.16180
C4650       C  0.50977479  0.94900578  0.66962429    -0.31360
H4651       H  0.54406989  0.94718863  0.64019788     0.12840
H4652       H  0.00039982  0.95599006  0.68765246     0.13420
C4653       C  0.91188273  0.81896414  0.51950061    -0.16180
C4654       C  0.89524735  0.82268330  0.54246693    -0.31360
H4655       H  0.93070000  0.82687022  0.51414274     0.12840
H4656       H  0.87530117  0.81563805  0.54691058     0.13420
C4657       C  0.80403447  0.80978741  0.50374345    -0.16180
C4658       C  0.78648635  0.81973080  0.48736204    -0.31360
H4659       H  0.80733259  0.81332283  0.52611789     0.12840
H4660       H  0.78217666  0.81586291  0.46532055     0.13420
C4661       C  0.81122884  0.73026189  0.59484558    -0.13020
C4662       C  0.81995807  0.72899308  0.57062824    -0.14580
C4663       C  0.84211323  0.81463396  0.65819992    -0.16180
C4664       C  0.86279313  0.82363917  0.67289076    -0.31360
H4665       H  0.83781663  0.81833500  0.63606409     0.12840
H4666       H  0.86795613  0.81948385  0.69461427     0.13420
C4667       C  0.72803090  0.82343425  0.64221995    -0.16180
C4668       C  0.75097400  0.82755357  0.62575563    -0.31360
H4669       H  0.70663129  0.82843627  0.63791003     0.12840
H4670       H  0.77256453  0.82307139  0.63121617     0.13420
C4671       C  0.68782096  0.77779791  0.81853324    -0.13020
C4672       C  0.67849932  0.77743986  0.84285622    -0.14580
C4673       C  0.57573306  0.72298554  0.09809026    -0.13020
C4674       C  0.58017025  0.72386629  0.07274406    -0.14580
C4675       C  0.94963520  0.77135340  0.34715775    -0.13020
C4676       C  0.95923238  0.77119352  0.32304226    -0.14580
C4677       C  0.78071238  0.68759079  0.77053836    -0.16180
C4678       C  0.76342716  0.68370584  0.79289954    -0.31360
H4679       H  0.80000038  0.68003970  0.76594839     0.12840
H4680       H  0.74310936  0.69043671  0.79643574     0.13420
C4681       C  0.73170356  0.68448930  0.92813275    -0.16180
C4682       C  0.71160259  0.69351647  0.91282265    -0.31360
H4683       H  0.73652536  0.68869642  0.94989109     0.12840
H4684       H  0.70743691  0.68951497  0.89081662     0.13420
C4685       C  0.52122916  0.32424135  0.62971119    -0.16180
C4686       C  0.51134138  0.32106253  0.65682987    -0.31360
H4687       H  0.53733723  0.31586579  0.61994543     0.12840
H4688       H  0.99567898  0.32977829  0.66664227     0.13420
C4689       C  0.53328314  0.30042578  0.50876664    -0.16180
C4690       C  0.50668634  0.30506539  0.49840448    -0.31360
H4691       H  0.54087672  0.30711387  0.52793087     0.12840
H4692       H  0.99745639  0.29803391  0.48036839     0.13420
C4693       C  0.55500212  0.68579057  0.28197713    -0.16180
C4694       C  0.53291781  0.68254676  0.29974268    -0.31360
H4695       H  0.57534627  0.67885886  0.28366747     0.12840
H4696       H  0.51183785  0.68838081  0.29641777     0.13420
C4697       C  0.98959351  0.67998098  0.43509042    -0.16180
C4698       C  0.97142189  0.68925024  0.41827946    -0.31360
H4699       H  0.99309063  0.68380009  0.45729367     0.12840
H4700       H  0.96848182  0.68553883  0.39593319     0.13420
C4701       C  0.94031203  0.59794107  0.32627920    -0.13020
C4702       C  0.95456982  0.59756249  0.34796472    -0.14580
C4703       C  0.70687493  0.64829732  0.33210758    -0.13020
C4704       C  0.68642424  0.64770792  0.34754061    -0.14580
C4705       C  0.86063940  0.69062498  0.36313402    -0.16180
C4706       C  0.85785780  0.68728231  0.39124490    -0.31360
H4707       H  0.85879384  0.70383408  0.35493199     0.12840
H4708       H  0.85653894  0.67389877  0.39906139     0.13420
C4709       C  0.93076365  0.68861959  0.25495397    -0.16180
C4710       C  0.91030038  0.67973769  0.23983553    -0.31360
H4711       H  0.93452082  0.68493047  0.27719645     0.12840
H4712       H  0.90594526  0.68349061  0.21774553     0.13420
C4713       C  0.88462779  0.32370767  0.01723930    -0.16180
C4714       C  0.87135906  0.32735157  0.04258769    -0.31360
H4715       H  0.89994380  0.33292863  0.00801532     0.12840
H4716       H  0.85647305  0.31800658  0.05216678     0.13420
C4717       C  0.87772743  0.30797220  0.17134591    -0.16180
C4718       C  0.85029431  0.30392303  0.16212594    -0.31360
H4719       H  0.88756179  0.30022563  0.18824145     0.12840
H4720       H  0.84200275  0.31127111  0.14392765     0.13420
C4721       C  0.74170202  0.32545781  0.15041975    -0.16180
C4722       C  0.75414038  0.32700905  0.12425537    -0.31360
H4723       H  0.73067966  0.33640198  0.16024626     0.12840
H4724       H  0.76587652  0.31611765  0.11501293     0.13420
C4725       C  0.73904532  0.30537063  0.99209358    -0.16180
C4726       C  0.76484152  0.30034535  0.00345246    -0.31360
H4727       H  0.73047737  0.29903424  0.97304746     0.12840
H4728       H  0.77152896  0.30629537  0.02360012     0.13420
C4729       C  0.79826777  0.39781387  0.08344646    -0.13020
C4730       C  0.82214126  0.40119455  0.09068677    -0.14580
C4731       C  0.56975679  0.34516459  0.07336812    -0.13020
C4732       C  0.55240268  0.34531148  0.09290902    -0.14580
C4733       C  0.69320704  0.59808259  0.82866609    -0.13020
C4734       C  0.70694155  0.59809250  0.85078696    -0.14580
C4735       C  0.96061856  0.65375738  0.82525931    -0.13020
C4736       C  0.93700233  0.65469827  0.83500991    -0.14580
C4737       C  0.61738695  0.68336907  0.87823447    -0.16180
C4738       C  0.59276499  0.69041689  0.88768885    -0.31360
H4739       H  0.63768302  0.68535677  0.88953051     0.12840
H4740       H  0.57264274  0.68868737  0.87614872     0.13420
C4741       C  0.65682887  0.68469142  0.73675404    -0.16180
C4742       C  0.67074469  0.69633912  0.75365341    -0.31360
H4743       H  0.65501366  0.68710922  0.71381670     0.12840
H4744       H  0.67172775  0.69404706  0.77669253     0.13420
C4745       C  0.63910707  0.32678762  0.54975297    -0.16180
C4746       C  0.65063372  0.32417742  0.52337791    -0.31360
H4747       H  0.62501336  0.31704260  0.55945088     0.12840
H4748       H  0.66514354  0.33380021  0.51396528     0.13420
C4749       C  0.62988848  0.30168679  0.67193606    -0.16180
C4750       C  0.65548008  0.30748145  0.68279816    -0.31360
H4751       H  0.62234420  0.30755934  0.65202375     0.12840
H4752       H  0.66486071  0.30125160  0.70155725     0.13420
C4753       C  0.56480069  0.39731033  0.58585444    -0.13020
C4754       C  0.58870916  0.39765997  0.59530125    -0.14580
C4755       C  0.83443250  0.34384095  0.57470763    -0.13020
C4756       C  0.81952523  0.34494002  0.59589627    -0.14580
C4757       C  0.72255145  0.43792517  0.53694175    -0.16180
C4758       C  0.74639550  0.43506665  0.55271066    -0.31360
H4759       H  0.70135149  0.43423955  0.54484064     0.12840
H4760       H  0.76772514  0.43799817  0.54423804     0.13420
C4761       C  0.83883491  0.44034010  0.51051438    -0.16180
C4762       C  0.85963231  0.43192330  0.49486844    -0.31360
H4763       H  0.83532729  0.43602671  0.53249787     0.12840
H4764       H  0.86424618  0.43655629  0.47327964     0.12140
C4765       C  0.76399929  0.56740385  0.40442269    -0.16180
C4766       C  0.75401669  0.57078325  0.37754076    -0.31360
H4767       H  0.77895928  0.57634643  0.41486626     0.12840
H4768       H  0.73858964  0.56213133  0.36714479     0.13420
C4769       C  0.61763502  0.55348423  0.43069315    -0.16180
C4770       C  0.64309348  0.54739977  0.42047369    -0.31360
H4771       H  0.60765842  0.54761559  0.44950440     0.12840
H4772       H  0.65105112  0.55297016  0.40044302     0.13420
C4773       C  0.81022163  0.44499293  0.66542938    -0.16180
C4774       C  0.79075409  0.43594453  0.68151080    -0.31360
H4775       H  0.81412041  0.44080895  0.64347501     0.12840
H4776       H  0.78590807  0.44043606  0.70309498     0.13420
C4777       C  0.80853616  0.52129535  0.57796782    -0.13020
C4778       C  0.82117978  0.52311271  0.60060814    -0.14580
C4779       C  0.87740305  0.57497601  0.76884226    -0.16180
C4780       C  0.88943584  0.57841245  0.79477067    -0.31360
H4781       H  0.86276793  0.58421397  0.75879316     0.12840
H4782       H  0.90373484  0.56910292  0.80510344     0.13420
C4783       C  0.99874293  0.55420182  0.75597969    -0.16180
C4784       C  0.52542541  0.55910041  0.74683782    -0.31360
H4785       H  0.99048952  0.56033575  0.77535393     0.12840
H4786       H  0.53548125  0.55254114  0.72879025     0.13420
C4787       C  0.91109686  0.43379616  0.64768294    -0.16180
C4788       C  0.89426185  0.43150391  0.62433948    -0.31360
H4789       H  0.92801147  0.42456841  0.65318588     0.12840
H4790       H  0.87600220  0.43993109  0.61970344     0.13420
C4791       C  0.95323116  0.47901856  0.81969291    -0.13020
C4792       C  0.95678257  0.47910807  0.84521204    -0.14580
C4793       C  0.90770974  0.55770367  0.91476150    -0.16180
C4794       C  0.88043456  0.56176949  0.92343663    -0.31360
H4795       H  0.91669333  0.56491907  0.89669063     0.12840
H4796       H  0.87007089  0.55407832  0.94016244     0.13420
C4797       C  0.51714834  0.57504365  0.87709736    -0.16180
C4798       C  0.53044255  0.57257817  0.90259553    -0.31360
H4799       H  0.50467773  0.56465939  0.86713739     0.12840
H4800       H  0.54254360  0.58304309  0.91283240     0.13420
C4801       C  0.58940990  0.44429897  0.00800209    -0.16180
C4802       C  0.60658721  0.43413766  0.99155656    -0.31360
H4803       H  0.58661128  0.44090405  0.03052047     0.12840
H4804       H  0.61038693  0.43782315  0.96931748     0.13420
C4805       C  0.97411210  0.43838951  0.02466295    -0.16180
C4806       C  0.99149228  0.43583198  0.04749955    -0.31360
H4807       H  0.95313786  0.43203093  0.02320597     0.12840
H4808       H  0.01296875  0.44155344  0.04880540     0.13420
C4809       C  0.56876266  0.52246165  0.07560865    -0.13020
C4810       C  0.58025172  0.52214039  0.09897912    -0.14580
C4811       C  0.68881694  0.47165720  0.32698001    -0.13020
C4812       C  0.69093831  0.47134707  0.35277619    -0.14580
C4813       C  0.63563148  0.42844583  0.12977806    -0.16180
C4814       C  0.65105881  0.42844313  0.15421680    -0.31360
H4815       H  0.61982755  0.43853780  0.12527589     0.12840
H4816       H  0.66561355  0.41779780  0.15949690     0.13420
C4817       C  0.55020128  0.44137320  0.16664681    -0.16180
C4818       C  0.52794490  0.43326391  0.18074752    -0.31360
H4819       H  0.55523849  0.43692108  0.14507888     0.12840
H4820       H  0.52212397  0.43794779  0.20197108     0.13420
C4821       C  0.77161305  0.55443198  0.25029843    -0.16180
C4822       C  0.74455049  0.54951511  0.25868766    -0.31360
H4823       H  0.78246392  0.54745810  0.23315682     0.12840
H4824       H  0.73542105  0.55610633  0.27723386     0.13420
C4825       C  0.62454034  0.56899289  0.27259470    -0.16180
C4826       C  0.63653046  0.57165260  0.29879297    -0.31360
H4827       H  0.61049703  0.57868266  0.26287409     0.12840
H4828       H  0.65017596  0.56185985  0.30879147     0.13420
C4829       C  0.63753954  0.82398203  0.01697040    -0.16180
C4830       C  0.62417051  0.82675470  0.04245800    -0.31360
H4831       H  0.65339467  0.83323535  0.00881225     0.12840
H4832       H  0.60867685  0.81734632  0.05085823     0.13420
C4833       C  0.64535075  0.80307473  0.17639933    -0.16180
C4834       C  0.62128347  0.79677284  0.16358045    -0.31360
H4835       H  0.65322046  0.79754745  0.19641111     0.12840
H4836       H  0.61518716  0.80203725  0.14271556     0.13420
C4837       C  0.72223216  0.93454250  0.02464213    -0.16180
C4838       C  0.73878946  0.93219210  0.04808354    -0.31360
H4839       H  0.70365036  0.92624901  0.02015266     0.12840
H4840       H  0.75853116  0.93961215  0.05172621     0.13420
C4841       C  0.78771294  0.94290633  0.16779050    -0.16180
C4842       C  0.77003173  0.93283140  0.18402799    -0.31360
H4843       H  0.79052520  0.93971206  0.14521810     0.12840
H4844       H  0.76604220  0.93633725  0.20627911     0.13420
C4845       C  0.00003223  0.81882070  0.15068779    -0.16180
C4846       C  0.00946839  0.82267043  0.12378005    -0.31360
H4847       H  0.98435140  0.82722418  0.16111274     0.12840
H4848       H  0.52571258  0.81465620  0.11337027     0.13420
C4849       C  0.99338320  0.80635129  0.99550995    -0.16180
C4850       C  0.51964686  0.80134023  0.00631806    -0.31360
H4851       H  0.98440302  0.79977867  0.97687320     0.12840
H4852       H  0.52703579  0.80751242  0.02602504     0.13420
C4853       C  0.55486055  0.89741882  0.07880236    -0.13020
C4854       C  0.57886587  0.89430951  0.08575586    -0.14580
C4855       C  0.82273378  0.84612021  0.07320237    -0.13020
C4856       C  0.80721941  0.84646489  0.09407453    -0.14580
C4857       C  0.88499244  0.93166017  0.12614824    -0.16180
C4858       C  0.90143229  0.93455083  0.14963119    -0.31360
H4859       H  0.86461139  0.93833907  0.12268565     0.12840
H4860       H  0.92077915  0.92697194  0.15384409     0.13420
C4861       C  0.83415930  0.94421338  0.00586224    -0.16180
C4862       C  0.85424187  0.93491657  0.99096185    -0.31360
H4863       H  0.82960076  0.94026740  0.02784328     0.12840
H4864       H  0.85979659  0.93918868  0.96938597     0.13420
loop_ 
_geom_bond_atom_site_label_1 
_geom_bond_atom_site_label_2 
_geom_bond_distance 
_geom_bond_site_symmetry_2 
_ccdc_geom_bond_type 
Zr1           O2   2.439       .  S
Zr1           O3   2.458       .  S
Zr1           O4   2.432       .  S
Zr1           O7   2.429       .  S
Zr1           O9   2.370       .  S
Zr1          O10   2.409       .  S
Zr1          O11   2.397       .  S
Zr1          O12   2.389       .  S
O2           H58   0.988       .  S
O2           H66   0.989       .  S
O3           C23   1.289       .  A
O4           C25   1.281       .  A
O5          Zr15   2.473       .  S
O5           C24   1.290       .  A
O6          Zr14   2.364       .  S
O6           C25   1.273       .  A
O7           C24   1.281       .  A
O8          Zr16   2.494       .  S
O8           C23   1.295   1_556  A
O9          Zr14   2.386       .  S
O9          Zr16   2.361   1_554  S
O10         Zr15   2.438       .  S
O10         Zr16   2.373   1_554  S
O10          H45   0.966   1_554  S
O11         Zr14   2.390       .  S
O11         Zr31   2.362       .  S
O11          H48   0.964       .  S
O12         Zr15   2.384       .  S
O12         Zr31   2.338       .  S
Zr13       O2470   2.442       .  S
Zr13         O32   2.478       .  S
Zr13         O40   2.386       .  S
Zr13       O2460   2.390       .  S
Zr13         O19   2.421       .  S
Zr13         O20   2.410       .  S
Zr13         O21   2.364       .  S
Zr13         O22   2.370       .  S
Zr14         O33   2.438       .  S
Zr14         O26   2.435       .  S
Zr14       O2459   2.386       .  S
Zr14         O20   2.382       .  S
Zr14         O21   2.380       .  S
Zr15         O17   2.435       .  S
Zr15         O39   2.438   1_554  S
Zr15         O41   2.541       .  S
Zr15         O19   2.384       .  S
Zr15         O22   2.386       .  S
Zr16         O42   2.434       .  S
Zr16         O43   2.434       .  S
Zr16         O18   2.436       .  S
Zr16         O19   2.438   1_556  S
Zr16         O20   2.412   1_556  S
O17          H54   0.990       .  S
O18          H49   0.990       .  S
O18          H63   0.990   1_556  S
O20          H46   0.966       .  S
O21         Zr31   2.372       .  S
O22         Zr31   2.393       .  S
O22          H47   0.966       .  S
C23        C2430   1.518   1_554  S
C24        C2423   1.438       .  S
C25        C2425   1.440       .  S
O26          H62   0.990       .  S
O27       Zr2446   2.386   1_455  S
O27          C29   1.273       .  A
O28       Zr2445   2.389   1_455  S
O28          C29   1.275       .  A
C29        C2421   1.395       .  S
O30         Zr31   2.439       .  S
O30          H59   0.990       .  S
Zr31         O34   2.438       .  S
Zr31         O35   2.439       .  S
Zr31         O36   2.355       .  S
O32          C37   1.291       .  A
O33          H50   0.990       .  S
O33          H65   0.990       .  S
O34          H51   0.990       .  S
O35          H55   0.990       .  S
O35          H64   0.990       .  S
O36          C37   1.271       .  A
C37        C2414   1.478       .  S
O38       Zr2445   2.442   1_455  S
O38          H61   0.990       .  S
O38        H2489   0.990   1_554  S
O39          H53   0.990       .  S
O39          H60   0.989       .  S
O40          C44   1.275       .  A
O41          C44   1.304       .  A
O42          H52   0.990       .  S
O43          H56   0.990       .  S
C44        C2417   1.513   1_554  S
H57        O2470   0.990   1_556  S
Zr67         O68   2.435       .  S
Zr67         O69   2.432       .  S
Zr67         O70   2.414       .  S
Zr67         O73   2.435       .  S
Zr67         O75   2.374       .  S
Zr67         O76   2.397       .  S
Zr67         O77   2.401       .  S
Zr67         O78   2.378       .  S
O68         H124   0.990       .  S
O68         H132   0.990       .  S
O69          C89   1.286       .  A
O70          C91   1.275       .  A
O71         Zr81   2.467       .  S
O71          C90   1.289       .  A
O72         Zr80   2.362       .  S
O72          C91   1.271       .  A
O73          C90   1.282       .  A
O74         Zr82   2.456       .  S
O74          C89   1.288       .  A
O75         Zr80   2.374       .  S
O75         Zr82   2.372       .  S
O76         Zr81   2.417       .  S
O76         Zr82   2.383       .  S
O76         H111   0.966       .  S
O77         Zr80   2.403       .  S
O77         Zr97   2.374       .  S
O77         H114   0.964       .  S
O78         Zr81   2.370       .  S
O78         Zr97   2.342       .  S
Zr79        O104   2.447       .  S
Zr79         O98   2.456       .  S
Zr79        O106   2.383       .  S
Zr79         O94   2.414       .  S
Zr79         O85   2.414       .  S
Zr79         O86   2.410       .  S
Zr79         O87   2.366       .  S
Zr79         O88   2.390       .  S
Zr80         O99   2.446       .  S
Zr80         O92   2.434       .  S
Zr80         O93   2.372       .  S
Zr80         O86   2.385       .  S
Zr80         O87   2.370       .  S
Zr81         O83   2.437       .  S
Zr81        O105   2.438       .  S
Zr81        O107   2.483       .  S
Zr81         O85   2.391       .  S
Zr81         O88   2.399       .  S
Zr82        O108   2.434       .  S
Zr82        O109   2.436       .  S
Zr82         O84   2.438       .  S
Zr82         O85   2.417       .  S
Zr82         O86   2.406       .  S
O83         H120   0.990       .  S
O84         H115   0.990       .  S
O84         H129   0.990       .  S
O86         H112   0.966       .  S
O87         Zr97   2.362       .  S
O88         Zr97   2.393       .  S
O88         H113   0.966       .  S
C89        C2410   1.490       .  S
C90        C2424   1.438       .  S
C91        C2406   1.433       .  S
O92         H128   0.990       .  S
O93          C95   1.264       .  A
O94          C95   1.275       .  A
C95        C2422   1.399       .  S
O96         Zr97   2.437       .  S
O96         H125   0.990       .  S
Zr97        O100   2.436       .  S
Zr97        O101   2.441       .  S
Zr97        O102   2.382       .  S
O98         C103   1.285       .  A
O99         H116   0.990       .  S
O99         H131   0.991       .  S
O100        H117   0.990       .  S
O101        H121   0.990       .  S
O101        H130   0.989       .  S
O102        C103   1.268       .  A
C103       C2398   1.466       .  S
O104        H123   0.991       .  S
O104        H127   0.990       .  S
O105        H119   0.990       .  S
O105        H126   0.990       .  S
O106        C110   1.277       .  A
O107        C110   1.292       .  A
O108        H118   0.990       .  S
O109        H122   0.990       .  S
C110       C2401   1.484       .  S
Zr133       O134   2.442       .  S
Zr133       O135   2.458       .  S
Zr133       O136   2.418       .  S
Zr133       O139   2.363       .  S
Zr133       O141   2.366       .  S
Zr133       O142   2.377       .  S
Zr133       O143   2.405       .  S
Zr133       O144   2.417       .  S
O134        H190   0.991       .  S
O134        H198   0.990       .  S
O135        C155   1.288       .  A
O136        C157   1.279       .  A
O137       Zr147   2.449       .  S
O137        C156   1.288       .  A
O138       Zr146   2.451       .  S
O138        C157   1.283       .  A
O139        C156   1.272       .  A
O140       Zr148   2.472       .  S
O140        C155   1.288       .  A
O141       Zr146   2.396       .  S
O141       Zr148   2.391       .  S
O142       Zr147   2.400       .  S
O142       Zr148   2.363       .  S
O142        H177   0.966       .  S
O143       Zr146   2.406       .  S
O143       Zr163   2.401       .  S
O143        H180   0.964       .  S
O144       Zr147   2.394       .  S
O144       Zr163   2.417       .  S
Zr145       O170   2.440       .  S
Zr145       O164   2.484       .  S
Zr145       O172   2.416       .  S
Zr145       O160   2.369       .  S
Zr145       O151   2.404       .  S
Zr145       O152   2.430       .  S
Zr145       O153   2.370       .  S
Zr145       O154   2.366       .  S
Zr146       O165   2.441       .  S
Zr146       O158   2.435       .  S
Zr146       O159   2.427       .  S
Zr146       O152   2.407       .  S
Zr146       O153   2.408       .  S
Zr147       O149   2.435       .  S
Zr147       O171   2.436       .  S
Zr147       O173   2.458       .  S
Zr147       O151   2.392       .  S
Zr147       O154   2.398       .  S
Zr148       O174   2.436       .  S
Zr148       O175   2.436       .  S
Zr148       O150   2.436       .  S
Zr148       O151   2.416       .  S
Zr148       O152   2.406       .  S
O149        H186   0.990       .  S
O150        H181   0.990       .  S
O150        H195   0.990       .  S
O152        H178   0.966       .  S
O153       Zr163   2.362       .  S
O154       Zr163   2.380       .  S
O154        H179   0.966       .  S
C155       C2390   1.505       .  S
C156       C2393   1.459       .  S
C157       C2379   1.432       .  S
O158        H194   0.990       .  S
O159        C161   1.278       .  A
O160        C161   1.270       .  A
C161       C2382   1.443       .  S
O162       Zr163   2.440       .  S
O162        H191   0.990       .  S
Zr163       O166   2.438       .  S
Zr163       O167   2.440       .  S
Zr163       O168   2.475       .  S
O164        C169   1.294       .  A
O165        H182   0.990       .  S
O165        H197   0.990       .  S
O166        H183   0.990       .  S
O167        H187   0.990       .  S
O167        H196   0.989       .  S
O168        C169   1.290       .  A
C169       C2385   1.522       .  S
O170        H189   0.990       .  S
O170        H193   0.990       .  S
O171        H185   0.990       .  S
O171        H192   0.990       .  S
O172        C176   1.280       .  A
O173        C176   1.287       .  A
O174        H184   0.990       .  S
O175        H188   0.990       .  S
C176       C2378   1.443       .  S
Zr199       O200   2.444       .  S
Zr199       O205   2.386   1_655  S
Zr199      O2633   2.467       .  S
Zr199      O2634   2.427       .  S
Zr199       O208   2.383       .  S
Zr199       O209   2.410   1_655  S
Zr199       O210   2.422   1_655  S
Zr199      O2639   2.370       .  S
O200        H256   0.990       .  S
O200        H264   0.991   1_655  S
O201      Zr2631   2.467       .  S
O201        C221   1.289       .  A
O202      Zr2631   2.427       .  S
O202        C223   1.279       .  A
O203       Zr213   2.431       .  S
O203        C222   1.282       .  A
O204       Zr212   2.427       .  S
O204        C223   1.280       .  A
O205        C222   1.274       .  A
O206       Zr214   2.459       .  S
O206        C221   1.286       .  A
O207       Zr212   2.396       .  S
O207       Zr214   2.386       .  S
O207      Zr2631   2.370       .  S
O208       Zr213   2.413   1_655  S
O208      Zr2646   2.364       .  S
O208        H243   0.966       .  S
O209       Zr229   2.397       .  S
O209      Zr2644   2.405   1_455  S
O209        H246   0.964       .  S
O210       Zr213   2.397       .  S
O210       Zr229   2.412       .  S
Zr211      O2668   2.437   1_455  S
Zr211       O230   2.443       .  S
Zr211       O238   2.413       .  S
Zr211      O2658   2.383       .  S
Zr211       O217   2.400       .  S
Zr211       O219   2.364   1_554  S
Zr211       O220   2.365   1_554  S
Zr211      O2650   2.418   1_454  S
Zr212       O231   2.437       .  S
Zr212       O224   2.436       .  S
Zr212       O225   2.416       .  S
Zr212       O218   2.410       .  S
Zr212      O2641   2.405       .  S
Zr212      O2651   2.390       .  S
Zr213       O215   2.435       .  S
Zr213       O237   2.436   1_556  S
Zr213       O239   2.463   1_556  S
Zr213       O217   2.388   1_556  S
Zr213       O220   2.384       .  S
Zr214       O240   2.436   1_556  S
Zr214       O241   2.435   1_556  S
Zr214       O216   2.436       .  S
Zr214       O218   2.404       .  S
Zr214      O2640   2.364       .  S
Zr214      O2649   2.413   1_556  S
O215        H252   0.990       .  S
O216        H247   0.990       .  S
O216        H261   0.990       .  S
O217      Zr2646   2.413   1_454  S
O218      Zr2643   2.418   1_556  S
O218        H244   0.966   1_556  S
O219       Zr229   2.354       .  S
O219      Zr2644   2.390   1_455  S
O220       Zr229   2.378       .  S
O220        H245   0.965       .  S
C221       C2361   1.504       .  S
C222       C2366   1.456       .  S
C223       C2360   1.423       .  S
O224        H260   0.990       .  S
O225        C227   1.277   1_556  A
O226      Zr2643   2.383       .  S
O226        C227   1.266       .  A
C227       C2373   1.446       .  S
O228       Zr229   2.440       .  S
O228        H257   0.990       .  S
Zr229       O232   2.438       .  S
Zr229       O233   2.440       .  S
Zr229       O234   2.466       .  S
O230        C235   1.287   1_554  A
O231        H248   0.990       .  S
O231        H263   0.990       .  S
O232        H249   0.990       .  S
O233        H253   0.990       .  S
O233        H262   0.989       .  S
O234        C235   1.290       .  A
C235       C2369   1.499   1_556  S
O236      Zr2643   2.437       .  S
O236        H255   0.990       .  S
O236        H259   0.990       .  S
O237        H251   0.990   1_554  S
O237        H258   0.990   1_554  S
O238        C242   1.281       .  A
O239        C242   1.289       .  A
O240        H250   0.990       .  S
O241        H254   0.990       .  S
C242       C2377   1.443       .  S
Zr265       O266   2.441       .  S
Zr265       O267   2.439       .  S
Zr265       O268   2.404       .  S
Zr265       O271   2.376       .  S
Zr265       O273   2.371       .  S
Zr265       O274   2.376       .  S
Zr265       O275   2.401       .  S
Zr265       O276   2.409       .  S
O266        H322   0.991       .  S
O266        H330   0.990       .  S
O267        C287   1.285       .  A
O268        C289   1.277       .  A
O269       Zr279   2.450       .  S
O269        C288   1.289       .  A
O270       Zr278   2.440       .  S
O270        C289   1.281       .  A
O271        C288   1.275       .  A
O272       Zr280   2.470       .  S
O272        C287   1.288       .  A
O273       Zr278   2.394       .  S
O273       Zr280   2.383       .  S
O274       Zr279   2.405       .  S
O274       Zr280   2.364       .  S
O274        H309   0.966       .  S
O275       Zr278   2.402       .  S
O275       Zr295   2.391       .  S
O275        H312   0.964       .  S
O276       Zr279   2.398       .  S
O276       Zr295   2.410       .  S
Zr277       O302   2.441       .  S
Zr277       O296   2.463       .  S
Zr277       O304   2.395       .  S
Zr277       O292   2.337       .  S
Zr277       O283   2.392       .  S
Zr277       O284   2.412       .  S
Zr277       O285   2.364       .  S
Zr277       O286   2.363       .  S
Zr278       O297   2.440       .  S
Zr278       O290   2.435       .  S
Zr278       O291   2.435       .  S
Zr278       O284   2.398       .  S
Zr278       O285   2.385       .  S
Zr279       O281   2.435       .  S
Zr279       O303   2.434       .  S
Zr279       O305   2.483       .  S
Zr279       O283   2.392       .  S
Zr279       O286   2.387       .  S
Zr280       O306   2.436       .  S
Zr280       O307   2.436       .  S
Zr280       O282   2.436       .  S
Zr280       O283   2.419       .  S
Zr280       O284   2.410       .  S
O281        H318   0.990       .  S
O282        H313   0.990       .  S
O282        H327   0.990       .  S
O284        H310   0.966       .  S
O285       Zr295   2.358       .  S
O286       Zr295   2.379       .  S
O286        H311   0.965       .  S
C287       C2351   1.496       .  S
C288       C2347   1.460       .  S
C289       C2359   1.422       .  S
O290        H326   0.990       .  S
O291        C293   1.283       .  A
O292        C293   1.270       .  A
C293       C2355   1.444       .  S
O294       Zr295   2.439       .  S
O294        H323   0.990       .  S
Zr295       O298   2.438       .  S
Zr295       O299   2.439       .  S
Zr295       O300   2.453       .  S
O296        C301   1.290       .  A
O297        H314   0.990       .  S
O297        H329   0.990       .  S
O298        H315   0.990       .  S
O299        H319   0.990       .  S
O299        H328   0.990       .  S
O300        C301   1.287       .  A
C301       C2341   1.502       .  S
O302        H321   0.990       .  S
O302        H325   0.990       .  S
O303        H317   0.990       .  S
O303        H324   0.990       .  S
O304        C308   1.276       .  A
O305        C308   1.293       .  A
O306        H316   0.990       .  S
O307        H320   0.990       .  S
C308       C2346   1.445       .  S
Zr331       O332   2.441       .  S
Zr331       O333   2.436       .  S
Zr331       O334   2.411       .  S
Zr331       O337   2.376       .  S
Zr331       O339   2.371       .  S
Zr331       O340   2.377       .  S
Zr331       O341   2.400       .  S
Zr331       O342   2.413       .  S
O332        H388   0.991       .  S
O332        H396   0.990       .  S
O333        C353   1.285       .  A
O334        C355   1.278       .  A
O335       Zr345   2.456       .  S
O335        C354   1.290       .  A
O336       Zr344   2.451       .  S
O336        C355   1.285       .  A
O337        C354   1.274       .  A
O338       Zr346   2.471       .  S
O338        C353   1.289       .  A
O339       Zr344   2.389       .  S
O339       Zr346   2.387       .  S
O340       Zr345   2.391       .  S
O340       Zr346   2.362       .  S
O340        H375   0.966       .  S
O341       Zr344   2.406       .  S
O341       Zr361   2.406       .  S
O341        H378   0.964       .  S
O342       Zr345   2.391       .  S
O342       Zr361   2.416       .  S
Zr343       O368   2.440       .  S
Zr343       O362   2.482       .  S
Zr343       O370   2.435       .  S
Zr343       O358   2.392       .  S
Zr343       O349   2.411       .  S
Zr343       O350   2.441       .  S
Zr343       O351   2.372       .  S
Zr343       O352   2.365       .  S
Zr344       O363   2.435       .  S
Zr344       O356   2.437       .  S
Zr344       O357   2.416       .  S
Zr344       O350   2.430       .  S
Zr344       O351   2.419       .  S
Zr345       O347   2.434       .  S
Zr345       O369   2.436       .  S
Zr345       O371   2.454       .  S
Zr345       O349   2.386       .  S
Zr345       O352   2.397       .  S
Zr346       O372   2.436       .  S
Zr346       O373   2.436       .  S
Zr346       O348   2.437       .  S
Zr346       O349   2.416       .  S
Zr346       O350   2.406       .  S
O347        H384   0.990       .  S
O348        H379   0.990       .  S
O348        H393   0.990       .  S
O350        H376   0.966       .  S
O351       Zr361   2.354       .  S
O352       Zr361   2.383       .  S
O352        H377   0.966       .  S
C353       C2338   1.493       .  S
C354       C2333   1.462       .  S
C355       C2380   1.431       .  S
O356        H392   0.990       .  S
O357        C359   1.269       .  A
O358        C359   1.263       .  A
C359       C2325   1.454       .  S
O360       Zr361   2.439       .  S
O360        H389   0.990       .  S
Zr361       O364   2.437       .  S
Zr361       O365   2.439       .  S
Zr361       O366   2.482       .  S
O362        C367   1.297       .  A
O363        H380   0.990       .  S
O363        H395   0.990       .  S
O364        H381   0.990       .  S
O365        H385   0.990       .  S
O365        H394   0.989       .  S
O366        C367   1.292       .  A
C367       C2329   1.524       .  S
O368        H387   0.990       .  S
O368        H391   0.990       .  S
O369        H383   0.990       .  S
O369        H390   0.990       .  S
O370        C374   1.286       .  A
O371        C374   1.287       .  A
O372        H382   0.990       .  S
O373        H386   0.990       .  S
C374       C2345   1.448       .  S
Zr397       O398   2.433       .  S
Zr397       O399   2.439       .  S
Zr397       O400   2.424       .  S
Zr397       O403   2.443       .  S
Zr397       O405   2.375       .  S
Zr397       O406   2.404       .  S
Zr397       O407   2.413       .  S
Zr397       O408   2.381       .  S
O398        H454   0.991       .  S
O398        H462   0.991       .  S
O399        C419   1.286       .  A
O400        C421   1.275       .  A
O401       Zr411   2.458       .  S
O401        C420   1.287       .  A
O402       Zr410   2.390       .  S
O402        C421   1.271       .  A
O403        C420   1.284       .  A
O404       Zr412   2.476       .  S
O404        C419   1.292       .  A
O405       Zr410   2.391       .  S
O405       Zr412   2.358       .  S
O406       Zr411   2.429       .  S
O406       Zr412   2.379       .  S
O406        H441   0.966       .  S
O407       Zr410   2.395       .  S
O407       Zr427   2.381       .  S
O407        H444   0.965       .  S
O408       Zr411   2.379       .  S
O408       Zr427   2.343       .  S
Zr409       O434   2.441       .  S
Zr409       O428   2.457       .  S
Zr409       O436   2.396       .  S
Zr409       O424   2.410       .  S
Zr409       O415   2.415       .  S
Zr409       O416   2.411       .  S
Zr409       O417   2.366       .  S
Zr409       O418   2.383       .  S
Zr410       O429   2.441       .  S
Zr410       O422   2.435       .  S
Zr410       O423   2.399       .  S
Zr410       O416   2.393       .  S
Zr410       O417   2.363       .  S
Zr411       O413   2.437       .  S
Zr411       O435   2.438       .  S
Zr411       O437   2.514       .  S
Zr411       O415   2.385       .  S
Zr411       O418   2.389       .  S
Zr412       O438   2.435       .  S
Zr412       O439   2.434       .  S
Zr412       O414   2.436       .  S
Zr412       O415   2.425       .  S
Zr412       O416   2.415       .  S
O413        H450   0.990       .  S
O414        H445   0.990       .  S
O414        H459   0.990       .  S
O416        H442   0.966       .  S
O417       Zr427   2.370       .  S
O418       Zr427   2.403       .  S
O418        H443   0.965       .  S
C419       C2342   1.502       .  S
C420       C2324   1.435       .  S
C421       C2326   1.450       .  S
O422        H458   0.990       .  S
O423        C425   1.275       .  A
O424        C425   1.279       .  A
C425       C2322   1.411       .  S
O426       Zr427   2.442       .  S
O426        H455   0.990       .  S
Zr427       O430   2.437       .  S
Zr427       O431   2.443       .  S
Zr427       O432   2.384       .  S
O428        C433   1.285       .  A
O429        H446   0.990       .  S
O429        H461   0.988       .  S
O430        H447   0.990       .  S
O431        H451   0.990       .  S
O431        H460   0.989       .  S
O432        C433   1.269       .  A
C433       C2313   1.469       .  S
O434        H453   0.990       .  S
O434        H457   0.990       .  S
O435        H449   0.990       .  S
O435        H456   0.990       .  S
O436        C440   1.279       .  A
O437        C440   1.299       .  A
O438        H448   0.990       .  S
O439        H452   0.990       .  S
C440       C2318   1.505       .  S
Zr463       O464   2.427       .  S
Zr463       O465   2.445       .  S
Zr463       O466   2.451       .  S
Zr463       O469   2.430       .  S
Zr463       O471   2.398       .  S
Zr463       O472   2.388       .  S
Zr463       O473   2.411       .  S
Zr463       O474   2.399       .  S
O464        H520   0.989       .  S
O464        H528   0.989       .  S
O465        C485   1.286       .  A
O466        C487   1.284       .  A
O467       Zr477   2.401       .  S
O467        C486   1.272       .  A
O468       Zr476   2.454       .  S
O468        C487   1.286       .  A
O469        C486   1.278       .  A
O470       Zr478   2.448       .  S
O470        C485   1.285       .  A
O471       Zr476   2.416       .  S
O471       Zr478   2.388       .  S
O472       Zr477   2.370       .  S
O472       Zr478   2.362       .  S
O472        H507   0.964       .  S
O473       Zr476   2.433       .  S
O473       Zr493   2.344       .  S
O473        H510   0.961       .  S
O474       Zr477   2.373       .  S
O474       Zr493   2.368       .  S
Zr475      O2932   2.446   1_455  S
Zr475       O494   2.452       .  S
Zr475       O490   2.403       .  S
Zr475      O2934   2.422   1_455  S
Zr475       O481   2.402       .  S
Zr475       O482   2.411       .  S
Zr475       O483   2.380       .  S
Zr475       O484   2.382       .  S
Zr476       O495   2.438       .  S
Zr476       O488   2.434       .  S
Zr476       O489   2.509       .  S
Zr476       O482   2.395       .  S
Zr476       O483   2.395       .  S
Zr477       O479   2.437       .  S
Zr477       O501   2.436       .  S
Zr477      O2935   2.380       .  S
Zr477       O481   2.389       .  S
Zr477       O484   2.365       .  S
Zr478       O504   2.436       .  S
Zr478       O505   2.435       .  S
Zr478       O480   2.435       .  S
Zr478       O481   2.396       .  S
Zr478       O482   2.406       .  S
O479        H516   0.990       .  S
O480        H511   0.990       .  S
O480        H525   0.990       .  S
O482        H508   0.966       .  S
O483       Zr493   2.385       .  S
O484       Zr493   2.374       .  S
O484        H509   0.965       .  S
C485       C2309   1.484       .  S
C486       C2305   1.454       .  S
C487       C2301   1.439       .  S
O488        H524   0.990       .  S
O489        C491   1.298       .  A
O490        C491   1.280       .  A
C491       C2352   1.504       .  S
O492       Zr493   2.443       .  S
O492        H521   0.990       .  S
Zr493       O496   2.438       .  S
Zr493       O497   2.437       .  S
Zr493       O498   2.372       .  S
O494        C499   1.283       .  A
O495        H512   0.990       .  S
O495        H527   0.990       .  S
O496        H513   0.990       .  S
O497        H517   0.990       .  S
O497        H526   0.990       .  S
O498        C499   1.265       .  A
C499       C2365   1.461       .  S
O500      Zr2907   2.446       .  S
O500        H519   0.990       .  S
O500       H2955   0.990       .  S
O501        H515   0.990       .  S
O501        H522   0.990       .  S
O502      Zr2907   2.422       .  S
O502        C506   1.283       .  A
O503      Zr2909   2.380       .  S
O503        C506   1.272       .  A
O504        H514   0.990       .  S
O505        H518   0.990       .  S
C506       C2303   1.404       .  S
H523       O2932   0.990       .  S
Zr529       O530   2.440       .  S
Zr529       O531   2.455       .  S
Zr529       O532   2.427       .  S
Zr529       O535   2.424       .  S
Zr529       O537   2.371       .  S
Zr529       O538   2.404       .  S
Zr529       O539   2.403       .  S
Zr529       O540   2.395       .  S
O530        H586   0.989       .  S
O530        H594   0.990       .  S
O531        C551   1.290       .  A
O532        C553   1.277       .  A
O533       Zr543   2.491       .  S
O533        C552   1.293       .  A
O534       Zr542   2.382       .  S
O534        C553   1.275       .  A
O535        C552   1.280       .  A
O536       Zr544   2.454       .  S
O536        C551   1.288   1_556  A
O537       Zr542   2.374       .  S
O537       Zr544   2.375   1_554  S
O538       Zr543   2.426       .  S
O538       Zr544   2.382   1_554  S
O538        H573   0.966   1_554  S
O539       Zr542   2.402       .  S
O539       Zr559   2.375       .  S
O539        H576   0.964       .  S
O540       Zr543   2.379       .  S
O540       Zr559   2.349       .  S
Zr541       O566   2.446       .  S
Zr541       O560   2.448       .  S
Zr541       O568   2.384       .  S
Zr541       O556   2.411       .  S
Zr541       O547   2.412       .  S
Zr541       O548   2.411       .  S
Zr541       O549   2.374       .  S
Zr541       O550   2.397       .  S
Zr542       O561   2.445       .  S
Zr542       O554   2.434       .  S
Zr542       O555   2.375       .  S
Zr542       O548   2.392       .  S
Zr542       O549   2.370       .  S
Zr543       O545   2.437       .  S
Zr543       O567   2.438   1_554  S
Zr543       O569   2.525       .  S
Zr543       O547   2.393       .  S
Zr543       O550   2.394       .  S
Zr544       O570   2.434       .  S
Zr544       O571   2.436       .  S
Zr544       O546   2.438       .  S
Zr544       O547   2.418   1_556  S
Zr544       O548   2.402   1_556  S
O545        H582   0.990       .  S
O546        H577   0.990       .  S
O546        H591   0.990       .  S
O548        H574   0.966       .  S
O549       Zr559   2.365       .  S
O550       Zr559   2.390       .  S
O550        H575   0.965       .  S
C551       C2370   1.497   1_554  S
C552       C2299   1.447       .  S
C553       C2381   1.444       .  S
O554        H590   0.990       .  S
O555        C557   1.265       .  A
O556        C557   1.275       .  A
C557       C2297   1.401       .  S
O558       Zr559   2.437       .  S
O558        H587   0.990       .  S
Zr559       O562   2.436       .  S
Zr559       O563   2.441       .  S
Zr559       O564   2.392       .  S
O560        C565   1.281       .  A
O561        H578   0.990       .  S
O561        H593   0.991       .  S
O562        H579   0.990       .  S
O563        H583   0.990       .  S
O563        H592   0.989       .  S
O564        C565   1.268       .  A
C565       C2290   1.465       .  S
O566        H585   0.991   1_554  S
O566        H589   0.990       .  S
O567        H581   0.990       .  S
O567        H588   0.990       .  S
O568        C572   1.277       .  A
O569        C572   1.302       .  A
O570        H580   0.990       .  S
O571        H584   0.990       .  S
C572       C2293   1.504   1_554  S
Zr595      O3028   2.440       .  S
Zr595       O597   2.457       .  S
Zr595       O598   2.438       .  S
Zr595      O3033   2.429       .  S
Zr595       O603   2.370       .  S
Zr595       O604   2.410       .  S
Zr595       O605   2.399       .  S
Zr595       O606   2.393       .  S
O596      Zr3027   2.440   1_455  S
O596        H652   0.989       .  S
O596        H660   0.989       .  S
O597        C617   1.289       .  A
O598        C619   1.282       .  A
O599      Zr3041   2.490   1_455  S
O599        C618   1.294       .  A
O600       Zr608   2.366       .  S
O600        C619   1.274       .  A
O601      Zr3027   2.429   1_455  S
O601        C618   1.282       .  A
O602       Zr610   2.505       .  S
O602        C617   1.298       .  A
O603       Zr608   2.385       .  S
O603       Zr610   2.358       .  S
O604       Zr609   2.440       .  S
O604       Zr610   2.375       .  S
O604        H639   0.966       .  S
O605       Zr608   2.391       .  S
O605       Zr625   2.376       .  S
O605        H642   0.965       .  S
O606       Zr609   2.386       .  S
O606       Zr625   2.348       .  S
Zr607       O632   2.443       .  S
Zr607       O626   2.478       .  S
Zr607       O634   2.392       .  S
Zr607       O622   2.392       .  S
Zr607       O613   2.423       .  S
Zr607       O614   2.415       .  S
Zr607       O615   2.363       .  S
Zr607       O616   2.377       .  S
Zr608       O627   2.438       .  S
Zr608       O620   2.435       .  S
Zr608       O621   2.386       .  S
Zr608       O614   2.382       .  S
Zr608       O615   2.376       .  S
Zr609       O611   2.435       .  S
Zr609       O633   2.438       .  S
Zr609       O635   2.563       .  S
Zr609      O3031   2.490       .  S
Zr609       O613   2.384       .  S
Zr609       O616   2.379       .  S
Zr610       O636   2.434       .  S
Zr610       O637   2.435       .  S
Zr610       O612   2.437       .  S
Zr610       O613   2.442       .  S
Zr610       O614   2.415       .  S
O611        H648   0.990       .  S
O612        H643   0.990       .  S
O612        H657   0.990       .  S
O614        H640   0.966       .  S
O615       Zr625   2.374       .  S
O616       Zr625   2.402       .  S
O616        H641   0.965       .  S
C617       C4818   1.524       .  S
C618       C2300   1.447       .  S
C619       C2374   1.447       .  S
O620        H656   0.990       .  S
O621        C623   1.272       .  A
O622        C623   1.276       .  A
C623       C2298   1.396       .  S
O624       Zr625   2.441       .  S
O624        H653   0.990       .  S
Zr625       O628   2.438       .  S
Zr625       O629   2.443       .  S
Zr625       O630   2.378       .  S
O626        C631   1.289       .  A
O627        H644   0.990       .  S
O627        H659   0.990       .  S
O628        H645   0.990       .  S
O629        H649   0.990       .  S
O629        H658   0.989       .  S
O630        C631   1.268       .  A
C631       C2282   1.478       .  S
O632        H651   0.990       .  S
O632        H655   0.990       .  S
O633        H647   0.990       .  S
O633        H654   0.989       .  S
O634        C638   1.276       .  A
O635        C638   1.309       .  A
O636        H646   0.990       .  S
O637        H650   0.990       .  S
C638       C2285   1.525       .  S
Zr661       O662   2.437       .  S
Zr661       O663   2.432       .  S
Zr661       O664   2.440       .  S
Zr661       O667   2.441       .  S
Zr661       O669   2.399       .  S
Zr661       O670   2.385       .  S
Zr661       O671   2.401       .  S
Zr661       O672   2.392       .  S
O662        H718   0.989       .  S
O662        H726   0.989       .  S
O663        C683   1.286       .  A
O664        C685   1.284       .  A
O665       Zr675   2.382       .  S
O665        C684   1.268       .  A
O666       Zr674   2.447       .  S
O666        C685   1.285       .  A
O667        C684   1.282       .  A
O668       Zr676   2.501       .  S
O668        C683   1.297       .  A
O669       Zr674   2.411       .  S
O669       Zr676   2.369       .  S
O670       Zr675   2.389       .  S
O670       Zr676   2.344       .  S
O670        H705   0.964       .  S
O671       Zr674   2.432       .  S
O671       Zr691   2.334       .  S
O671        H708   0.962       .  S
O672       Zr675   2.378       .  S
O672       Zr691   2.367       .  S
Zr673       O698   2.441       .  S
Zr673       O692   2.474       .  S
Zr673       O700   2.407       .  S
Zr673       O688   2.401       .  S
Zr673       O679   2.417       .  S
Zr673       O680   2.418       .  S
Zr673       O681   2.371       .  S
Zr673       O682   2.380       .  S
Zr674       O693   2.437       .  S
Zr674       O686   2.434       .  S
Zr674       O687   2.521       .  S
Zr674       O680   2.384       .  S
Zr674       O681   2.389       .  S
Zr675       O677   2.436       .  S
Zr675       O699   2.440       .  S
Zr675       O701   2.391       .  S
Zr675       O679   2.386       .  S
Zr675       O682   2.374       .  S
Zr676       O702   2.435       .  S
Zr676       O703   2.435       .  S
Zr676       O678   2.435       .  S
Zr676       O679   2.418       .  S
Zr676       O680   2.427       .  S
O677        H714   0.990       .  S
O678        H709   0.990       .  S
O678        H723   0.990       .  S
O680        H706   0.966       .  S
O681       Zr691   2.399       .  S
O682       Zr691   2.361       .  S
O682        H707   0.965       .  S
C683       C2278   1.506       .  S
C684       C2273   1.438       .  S
C685       C2269   1.433       .  S
O686        H722   0.990       .  S
O687        C689   1.301       .  A
O688        C689   1.279       .  A
C689       C2389   1.512       .  S
O690       Zr691   2.440       .  S
O690        H719   0.990       .  S
Zr691       O694   2.439       .  S
Zr691       O695   2.443       .  S
Zr691       O696   2.343       .  S
O692        C697   1.291       .  A
O693        H710   0.990       .  S
O693        H725   0.990       .  S
O694        H711   0.990       .  S
O695        H715   0.990       .  S
O695        H724   0.990       .  S
O696        C697   1.269       .  A
C697       C2334   1.474       .  S
O698        H717   0.990       .  S
O698        H721   0.990       .  S
O699        H713   0.990       .  S
O699        H720   0.990       .  S
O700        C704   1.278       .  A
O701        C704   1.271       .  A
O702        H712   0.990       .  S
O703        H716   0.990       .  S
C704       C2271   1.406       .  S
Zr727      O3160   2.427   1_455  S
Zr727       O729   2.418   1_455  S
Zr727       O733   2.415       .  S
Zr727      O3162   2.439   1_455  S
Zr727       O735   2.390       .  S
Zr727       O736   2.385       .  S
Zr727       O737   2.402       .  S
Zr727       O738   2.389       .  S
O728      Zr3159   2.426       .  S
O728        H784   0.989       .  S
O728        H792   0.989       .  S
O729        C749   1.282   1_655  A
O730      Zr3159   2.439       .  S
O730        C751   1.280       .  A
O731       Zr741   2.393       .  S
O731        C750   1.275       .  A
O732      Zr3172   2.446       .  S
O732        C751   1.283       .  A
O733        C750   1.278       .  A
O734       Zr742   2.459       .  S
O734        C749   1.288       .  A
O735       Zr740   2.411       .  S
O735       Zr742   2.380       .  S
O736       Zr741   2.376       .  S
O736       Zr742   2.366       .  S
O736        H771   0.965       .  S
O737       Zr740   2.432       .  S
O737       Zr757   2.344       .  S
O737        H774   0.961       .  S
O738       Zr741   2.377       .  S
O738       Zr757   2.364       .  S
Zr739       O764   2.443       .  S
Zr739       O758   2.461       .  S
Zr739       O766   2.411       .  S
Zr739       O754   2.404       .  S
Zr739       O745   2.410       .  S
Zr739       O746   2.413       .  S
Zr739       O747   2.377       .  S
Zr739       O748   2.388       .  S
Zr740       O759   2.437       .  S
Zr740       O752   2.435       .  S
Zr740       O753   2.499       .  S
Zr740      O3164   2.446   1_455  S
Zr740       O746   2.394       .  S
Zr740       O747   2.395       .  S
Zr741       O743   2.438       .  S
Zr741       O765   2.438       .  S
Zr741       O767   2.391       .  S
Zr741       O745   2.387       .  S
Zr741       O748   2.364       .  S
Zr742       O768   2.436       .  S
Zr742       O769   2.435       .  S
Zr742       O744   2.435       .  S
Zr742       O745   2.398       .  S
Zr742       O746   2.417       .  S
O743        H780   0.990       .  S
O744        H775   0.990       .  S
O744        H789   0.990       .  S
O746        H772   0.966       .  S
O747       Zr757   2.391       .  S
O748       Zr757   2.372       .  S
O748        H773   0.965       .  S
C749       C4697   1.483   1_455  S
C750       C2262   1.441       .  S
C751       C2270   1.433       .  S
O752        H788   0.990   1_455  S
O753        C755   1.296       .  A
O754        C755   1.281       .  A
C755       C2337   1.501       .  S
O756       Zr757   2.441       .  S
O756        H785   0.990       .  S
Zr757       O760   2.436       .  S
Zr757       O761   2.437       .  S
Zr757       O762   2.363       .  S
O758        C763   1.286       .  A
O759        H776   0.990       .  S
O759        H791   0.990       .  S
O760        H777   0.990       .  S
O761        H781   0.991       .  S
O761        H790   0.990       .  S
O762        C763   1.265       .  A
C763       C2394   1.461       .  S
O764        H783   0.990       .  S
O764        H787   0.990       .  S
O765        H779   0.990       .  S
O765        H786   0.990       .  S
O766        C770   1.279       .  A
O767        C770   1.270       .  A
O768        H778   0.990       .  S
O769        H782   0.990       .  S
C770       C2272   1.407       .  S
Zr793       O794   2.436       .  S
Zr793       O795   2.442       .  S
Zr793       O796   2.429       .  S
Zr793       O799   2.425       .  S
Zr793       O801   2.371       .  S
Zr793       O802   2.410       .  S
Zr793       O803   2.390       .  S
Zr793       O804   2.388       .  S
O794        H850   0.989       .  S
O794        H858   0.987       .  S
O795        C815   1.287       .  A
O796        C817   1.281       .  A
O797       Zr807   2.472       .  S
O797        C816   1.289       .  A
O798       Zr806   2.365       .  S
O798        C817   1.275       .  A
O799        C816   1.280       .  A
O800       Zr808   2.525       .  S
O800        C815   1.302       .  A
O801       Zr806   2.383       .  S
O801       Zr808   2.351       .  S
O802       Zr807   2.438       .  S
O802       Zr808   2.367       .  S
O802        H837   0.965       .  S
O803       Zr806   2.390       .  S
O803       Zr823   2.360       .  S
O803        H840   0.965       .  S
O804       Zr807   2.388       .  S
O804       Zr823   2.335       .  S
Zr805      O3262   2.440       .  S
Zr805       O832   2.399       .  S
Zr805      O3256   2.491       .  S
Zr805      O3252   2.416       .  S
Zr805       O811   2.432       .  S
Zr805       O812   2.421       .  S
Zr805       O813   2.359       .  S
Zr805       O814   2.374       .  S
Zr806       O825   2.437       .  S
Zr806       O818   2.435       .  S
Zr806      O3251   2.390       .  S
Zr806       O812   2.379       .  S
Zr806       O813   2.375       .  S
Zr807       O809   2.435       .  S
Zr807       O831   2.438       .  S
Zr807       O833   2.543       .  S
Zr807       O811   2.385       .  S
Zr807       O814   2.390       .  S
Zr808       O834   2.435       .  S
Zr808       O835   2.435       .  S
Zr808       O810   2.435       .  S
Zr808       O811   2.448       .  S
Zr808       O812   2.428       .  S
O809        H846   0.990       .  S
O810        H841   0.990       .  S
O810        H855   0.990       .  S
O812       H3270   0.966       .  S
O813       Zr823   2.372       .  S
O814       Zr823   2.398       .  S
O814        H839   0.966       .  S
C815       C2330   1.525       .  S
C816       C2323   1.435       .  S
C817       C2356   1.441       .  S
O818        H854   0.990       .  S
O819      Zr3238   2.390   1_455  S
O819        C821   1.273       .  A
O820      Zr3237   2.416   1_455  S
O820        C821   1.280       .  A
C821       C2321   1.411       .  S
O822       Zr823   2.440       .  S
O822        H851   0.990       .  S
Zr823       O826   2.439       .  S
Zr823       O827   2.440       .  S
Zr823       O828   2.340       .  S
O824      Zr3237   2.491   1_455  S
O824        C829   1.294       .  A
O825        H857   0.990       .  S
O825       H3274   0.990       .  S
O826        H843   0.990       .  S
O827        H847   0.990       .  S
O827        H856   0.990       .  S
O828       C3261   1.267       .  A
C829       O3260   1.267   1_455  A
C829       C2253   1.479       .  S
O830      Zr3237   2.440   1_455  S
O830        H849   0.990       .  S
O830        H853   0.990       .  S
O831        H845   0.990       .  S
O831        H852   0.989       .  S
O832        C836   1.278       .  A
O833        C836   1.305       .  A
O834        H844   0.990       .  S
O835       H3280   0.990       .  S
C836       C4690   1.520       .  S
H838       O3244   0.966       .  S
H842       O3257   0.990       .  S
H848       O3267   0.990       .  S
Zr859       O860   2.439       .  S
Zr859       O861   2.462       .  S
Zr859       O862   2.428       .  S
Zr859       O865   2.409       .  S
Zr859       O867   2.395       .  S
Zr859       O868   2.381       .  S
Zr859       O869   2.409       .  S
Zr859       O870   2.387       .  S
O860        H916   0.986       .  S
O860        H924   0.990       .  S
O861        C881   1.292       .  A
O862        C883   1.280       .  A
O863       Zr873   2.380       .  S
O863        C882   1.277       .  A
O864       Zr872   2.462       .  S
O864        C883   1.286       .  A
O865        C882   1.279       .  A
O866       Zr874   2.494       .  S
O866        C881   1.296       .  A
O867       Zr872   2.417       .  S
O867       Zr874   2.375       .  S
O868       Zr873   2.364       .  S
O868       Zr874   2.358       .  S
O868        H903   0.965       .  S
O869       Zr872   2.422       .  S
O869       Zr889   2.345       .  S
O869        H906   0.961       .  S
O870       Zr873   2.371       .  S
O870       Zr889   2.365       .  S
Zr871       O896   2.442       .  S
Zr871       O890   2.468       .  S
Zr871       O898   2.408       .  S
Zr871       O886   2.407       .  S
Zr871       O877   2.412       .  S
Zr871       O878   2.418       .  S
Zr871       O879   2.373       .  S
Zr871       O880   2.374       .  S
Zr872       O891   2.438       .  S
Zr872       O884   2.434       .  S
Zr872       O885   2.516       .  S
Zr872       O878   2.391       .  S
Zr872       O879   2.393       .  S
Zr873       O875   2.437       .  S
Zr873       O897   2.436       .  S
Zr873       O899   2.393       .  S
Zr873       O877   2.383       .  S
Zr873       O880   2.361       .  S
Zr874       O900   2.435       .  S
Zr874       O901   2.435       .  S
Zr874       O876   2.435       .  S
Zr874       O877   2.412       .  S
Zr874       O878   2.432       .  S
O875        H912   0.990       .  S
O876        H907   0.990       .  S
O876        H921   0.990       .  S
O878        H904   0.966       .  S
O879       Zr889   2.392       .  S
O880       Zr889   2.368       .  S
O880        H905   0.965       .  S
C881       C2249   1.513       .  S
C882       C2246   1.443       .  S
C883       C2302   1.440       .  S
O884        H920   0.990       .  S
O885        C887   1.300       .  A
O886        C887   1.280       .  A
C887       C2362   1.510       .  S
O888       Zr889   2.442       .  S
O888        H917   0.990       .  S
Zr889       O892   2.437       .  S
Zr889       O893   2.438       .  S
Zr889       O894   2.365       .  S
O890        C895   1.287       .  A
O891        H908   0.990       .  S
O891        H923   0.990       .  S
O892        H909   0.990       .  S
O893        H913   0.990       .  S
O893        H922   0.990       .  S
O894        C895   1.266       .  A
C895       C2348   1.466       .  S
O896        H915   0.990       .  S
O896        H919   0.990       .  S
O897        H911   0.990       .  S
O897        H918   0.990       .  S
O898        C902   1.280       .  A
O899        C902   1.274       .  A
O900        H910   0.990       .  S
O901        H914   0.990       .  S
C902       C2304   1.403       .  S
Zr925       O926   2.444       .  S
Zr925       O931   2.392       .  S
Zr925      O3359   2.468   1_455  S
Zr925      O3360   2.424   1_455  S
Zr925       O934   2.384       .  S
Zr925       O935   2.415       .  S
Zr925       O936   2.409       .  S
Zr925      O3365   2.372   1_455  S
O926        H982   0.990   1_455  S
O926        H990   0.990       .  S
O927      Zr3357   2.468       .  S
O927        C947   1.290       .  A
O928      Zr3357   2.424       .  S
O928        C949   1.279       .  A
O929       Zr939   2.413       .  S
O929        C948   1.275       .  A
O930       Zr938   2.449       .  S
O930        C949   1.284       .  A
O931        C948   1.273       .  A
O932       Zr940   2.457       .  S
O932        C947   1.286       .  A
O933       Zr938   2.404       .  S
O933       Zr940   2.383       .  S
O933      Zr3357   2.372       .  S
O934       Zr939   2.404       .  S
O934      Zr3372   2.372   1_455  S
O934        H969   0.966       .  S
O935       Zr955   2.407       .  S
O935      Zr3370   2.400   1_455  S
O935        H972   0.965       .  S
O936       Zr939   2.394       .  S
O936       Zr955   2.392       .  S
Zr937       O962   2.444       .  S
Zr937       O956   2.433       .  S
Zr937       O964   2.397       .  S
Zr937       O952   2.390       .  S
Zr937       O943   2.394       .  S
Zr937       O945   2.369       .  S
Zr937       O946   2.372       .  S
Zr937      O3376   2.408   1_455  S
Zr938       O957   2.438       .  S
Zr938       O950   2.435       .  S
Zr938       O951   2.455       .  S
Zr938       O944   2.394       .  S
Zr938      O3367   2.400       .  S
Zr938      O3377   2.385       .  S
Zr939       O941   2.435       .  S
Zr939       O963   2.437       .  S
Zr939       O965   2.433       .  S
Zr939       O943   2.387       .  S
Zr939       O946   2.381       .  S
Zr940       O966   2.435       .  S
Zr940       O967   2.435       .  S
Zr940       O942   2.436       .  S
Zr940       O944   2.418       .  S
Zr940      O3366   2.372       .  S
Zr940      O3375   2.402       .  S
O941        H978   0.990       .  S
O942        H973   0.990       .  S
O942        H987   0.990       .  S
O943      Zr3372   2.402   1_455  S
O944      Zr3369   2.408       .  S
O944        H970   0.966       .  S
O945       Zr955   2.367       .  S
O945      Zr3370   2.385   1_455  S
O946       Zr955   2.385       .  S
O946        H971   0.966       .  S
C947       C2277   1.503       .  S
C948       C2261   1.438       .  S
C949       C2244   1.437       .  S
O950        H986   0.990       .  S
O951        C953   1.290       .  A
O952       C3385   1.276       .  A
C953       O3384   1.276       .  A
C953       C2413   1.469       .  S
O954       Zr955   2.439       .  S
O954        H983   0.990       .  S
Zr955       O958   2.437       .  S
Zr955       O959   2.438       .  S
Zr955       O960   2.440       .  S
O956        C961   1.285       .  A
O957        H974   0.990       .  S
O957       H3421   0.990       .  S
O958        H975   0.990       .  S
O959        H979   0.990       .  S
O959        H988   0.990       .  S
O960        C961   1.284       .  A
C961       C2402   1.477       .  S
O962        H981   0.990       .  S
O962       H3417   0.990   1_455  S
O963        H977   0.990       .  S
O963        H984   0.990       .  S
O964        C968   1.277       .  A
O965        C968   1.282       .  A
O966        H976   0.990       .  S
O967        H980   0.990       .  S
C968       C2241   1.422       .  S
H985       O3394   0.990       .  S
H989       O3389   0.990   1_455  S
Zr991       O992   2.443       .  S
Zr991       O993   2.480       .  S
Zr991       O994   2.426       .  S
Zr991       O997   2.391       .  S
Zr991       O999   2.374       .  S
Zr991      O1000   2.386       .  S
Zr991      O1001   2.423       .  S
Zr991      O1002   2.416       .  S
O992       H1048   0.990       .  S
O992       H1056   0.990       .  S
O993       C1013   1.292       .  A
O994       C1015   1.280       .  A
O995      Zr1005   2.414       .  S
O995       C1014   1.273       .  A
O996      Zr1004   2.463       .  S
O996       C1015   1.287       .  A
O997       C1014   1.269       .  A
O998      Zr1006   2.472       .  S
O998       C1013   1.289       .  A
O999      Zr1004   2.405       .  S
O999      Zr1006   2.382       .  S
O1000     Zr1005   2.403       .  S
O1000     Zr1006   2.370       .  S
O1000      H1035   0.965       .  S
O1001     Zr1004   2.401       .  S
O1001     Zr1021   2.418       .  S
O1001      H1038   0.965       .  S
O1002     Zr1005   2.394       .  S
O1002     Zr1021   2.402       .  S
Zr1003     O1028   2.447       .  S
Zr1003     O1022   2.474       .  S
Zr1003     O1030   2.415       .  S
Zr1003     O1018   2.372       .  S
Zr1003     O1009   2.397       .  S
Zr1003     O1010   2.421   1_554  S
Zr1003     O1011   2.368   1_554  S
Zr1003     O1012   2.366   1_554  S
Zr1004     O1023   2.438       .  S
Zr1004     O1016   2.435       .  S
Zr1004     O1017   2.461       .  S
Zr1004     O1010   2.398       .  S
Zr1004     O1011   2.393       .  S
Zr1005     O1007   2.435       .  S
Zr1005     O1029   2.438       .  S
Zr1005     O1031   2.425   1_556  S
Zr1005     O1009   2.383   1_556  S
Zr1005     O1012   2.390       .  S
Zr1006     O1032   2.435   1_556  S
Zr1006     O1033   2.436   1_556  S
Zr1006     O1008   2.437       .  S
Zr1006     O1009   2.406   1_556  S
Zr1006     O1010   2.424       .  S
O1007      H1044   0.990       .  S
O1008      H1039   0.990       .  S
O1008      H1053   0.990       .  S
O1010      H1036   0.966       .  S
O1011     Zr1021   2.362       .  S
O1012     Zr1021   2.389       .  S
O1012      H1037   0.966       .  S
C1013      C2250   1.513       .  S
C1014      C2306   1.432       .  S
C1015      C2240   1.444       .  S
O1016      H1052   0.990       .  S
O1017      C1019   1.290   1_556  A
O1018      C1019   1.274       .  A
C1019      C2397   1.470       .  S
O1020     Zr1021   2.439       .  S
O1020      H1049   0.990       .  S
Zr1021     O1024   2.437       .  S
Zr1021     O1025   2.438       .  S
Zr1021     O1026   2.464       .  S
O1022      C1027   1.293   1_554  A
O1023      H1040   0.990       .  S
O1023      H1055   0.990       .  S
O1024      H1041   0.990       .  S
O1025      H1045   0.990       .  S
O1025      H1054   0.990       .  S
O1026      C1027   1.287       .  A
C1027      C2418   1.508   1_556  S
O1028      H1047   0.990       .  S
O1028      H1051   0.990       .  S
O1029      H1043   0.990       .  S
O1029      H1050   0.990       .  S
O1030      C1034   1.280       .  A
O1031      C1034   1.279       .  A
O1032      H1042   0.990       .  S
O1033      H1046   0.990       .  S
C1034      C2242   1.424       .  S
Zr1057     O1058   2.440       .  S
Zr1057     O1059   2.445       .  S
Zr1057     O1060   2.410       .  S
Zr1057     O1063   2.352       .  S
Zr1057     O1065   2.367       .  S
Zr1057     O1066   2.377       .  S
Zr1057     O1067   2.396       .  S
Zr1057     O1068   2.408       .  S
O1058      H1114   0.990       .  S
O1058      H1122   0.990       .  S
O1059      C1079   1.286       .  A
O1060      C1081   1.278       .  A
O1061     Zr1071   2.424       .  S
O1061      C1080   1.280       .  A
O1062     Zr1070   2.469       .  S
O1062      C1081   1.288       .  A
O1063      C1080   1.272       .  A
O1064     Zr1072   2.440       .  S
O1064      C1079   1.285       .  A
O1065     Zr1070   2.388       .  S
O1065     Zr1072   2.384       .  S
O1066     Zr1071   2.381       .  S
O1066     Zr1072   2.361       .  S
O1066      H1101   0.964       .  S
O1067     Zr1070   2.394       .  S
O1067     Zr1087   2.410       .  S
O1067      H1104   0.966       .  S
O1068     Zr1071   2.395       .  S
O1068     Zr1087   2.410       .  S
Zr1069     O1094   2.448       .  S
Zr1069     O1088   2.473       .  S
Zr1069     O1096   2.412       .  S
Zr1069     O1084   2.327       .  S
Zr1069     O1075   2.383       .  S
Zr1069     O1076   2.415       .  S
Zr1069     O1077   2.370       .  S
Zr1069     O1078   2.359       .  S
Zr1070     O1089   2.436       .  S
Zr1070     O1082   2.436       .  S
Zr1070     O1083   2.431       .  S
Zr1070     O1076   2.407       .  S
Zr1070     O1077   2.403       .  S
Zr1071     O1073   2.434       .  S
Zr1071     O1095   2.439       .  S
Zr1071     O1097   2.430       .  S
Zr1071     O1075   2.386       .  S
Zr1071     O1078   2.388       .  S
Zr1072     O1098   2.435       .  S
Zr1072     O1099   2.436       .  S
Zr1072     O1074   2.437       .  S
Zr1072     O1075   2.402       .  S
Zr1072     O1076   2.398       .  S
O1073      H1110   0.990       .  S
O1074      H1105   0.990       .  S
O1074      H1119   0.990       .  S
O1076      H1102   0.966       .  S
O1077     Zr1087   2.359       .  S
O1078     Zr1087   2.387       .  S
O1078      H1103   0.966       .  S
C1079      C2310   1.485       .  S
C1080      C2245   1.442       .  S
C1081      C2239   1.444       .  S
O1082      H1118   0.990       .  S
O1083      C1085   1.282       .  A
O1084      C1085   1.268       .  A
C1085      C2235   1.441       .  S
O1086     Zr1087   2.439       .  S
O1086      H1115   0.990       .  S
Zr1087     O1090   2.437       .  S
Zr1087     O1091   2.440       .  S
Zr1087     O1092   2.464       .  S
O1088      C1093   1.292       .  A
O1089      H1106   0.990       .  S
O1089      H1121   0.990       .  S
O1090      H1107   0.990       .  S
O1091      H1111   0.990       .  S
O1091      H1120   0.989       .  S
O1092      C1093   1.289       .  A
C1093      C2231   1.513       .  S
O1094      H1113   0.990       .  S
O1094      H1117   0.990       .  S
O1095      H1109   0.990       .  S
O1095      H1116   0.990       .  S
O1096      C1100   1.280       .  A
O1097      C1100   1.281       .  A
O1098      H1108   0.990       .  S
O1099      H1112   0.990       .  S
C1100      C2229   1.429       .  S
Zr1123     O1124   2.442       .  S
Zr1123     O1125   2.447       .  S
Zr1123     O1126   2.425       .  S
Zr1123     O1129   2.393       .  S
Zr1123     O1131   2.371       .  S
Zr1123     O1132   2.390       .  S
Zr1123     O1133   2.410       .  S
Zr1123     O1134   2.415       .  S
O1124      H1180   0.990       .  S
O1124      H1188   0.991       .  S
O1125      C1145   1.285       .  A
O1126      C1147   1.278       .  A
O1127     Zr1137   2.421       .  S
O1127      C1146   1.274       .  A
O1128     Zr1136   2.448       .  S
O1128      C1147   1.283       .  A
O1129      C1146   1.272       .  A
O1130     Zr1138   2.426       .  S
O1130      C1145   1.282       .  A
O1131     Zr1136   2.394       .  S
O1131     Zr1138   2.384       .  S
O1132     Zr1137   2.409       .  S
O1132     Zr1138   2.369       .  S
O1132      H1167   0.965       .  S
O1133     Zr1136   2.397       .  S
O1133     Zr1153   2.408       .  S
O1133      H1170   0.965       .  S
O1134     Zr1137   2.405       .  S
O1134     Zr1153   2.402       .  S
Zr1135     O1160   2.442       .  S
Zr1135     O1154   2.438       .  S
Zr1135     O1162   2.394       .  S
Zr1135     O1150   2.346       .  S
Zr1135     O1141   2.383       .  S
Zr1135     O1142   2.402       .  S
Zr1135     O1143   2.365       .  S
Zr1135     O1144   2.365       .  S
Zr1136     O1155   2.438       .  S
Zr1136     O1148   2.435       .  S
Zr1136     O1149   2.434       .  S
Zr1136     O1142   2.402       .  S
Zr1136     O1143   2.384       .  S
Zr1137     O1139   2.435       .  S
Zr1137     O1161   2.437       .  S
Zr1137     O1163   2.443       .  S
Zr1137     O1141   2.391       .  S
Zr1137     O1144   2.387       .  S
Zr1138     O1164   2.435       .  S
Zr1138     O1165   2.435       .  S
Zr1138     O1140   2.437       .  S
Zr1138     O1141   2.401       .  S
Zr1138     O1142   2.398       .  S
O1139      H1176   0.990       .  S
O1140      H1171   0.990       .  S
O1140      H1185   0.990       .  S
O1142      H1168   0.966       .  S
O1143     Zr1153   2.354       .  S
O1144     Zr1153   2.385       .  S
O1144      H1169   0.966       .  S
C1145      C2266   1.480       .  S
C1146      C2274   1.459       .  S
C1147      C2243   1.437       .  S
O1148      H1184   0.990       .  S
O1149      C1151   1.284       .  A
O1150      C1151   1.271       .  A
C1151      C2221   1.448       .  S
O1152     Zr1153   2.439       .  S
O1152      H1181   0.990       .  S
Zr1153     O1156   2.437       .  S
Zr1153     O1157   2.441       .  S
Zr1153     O1158   2.453       .  S
O1154      C1159   1.285       .  A
O1155      H1172   0.990       .  S
O1155      H1187   0.990       .  S
O1156      H1173   0.990       .  S
O1157      H1177   0.990       .  S
O1157      H1186   0.989       .  S
O1158      C1159   1.287       .  A
C1159      C2225   1.492       .  S
O1160      H1179   0.990       .  S
O1160      H1183   0.990       .  S
O1161      H1175   0.990       .  S
O1161      H1182   0.990       .  S
O1162      C1166   1.276       .  A
O1163      C1166   1.284       .  A
O1164      H1174   0.990       .  S
O1165      H1178   0.990       .  S
C1166      C2230   1.426       .  S
Zr1189     O1190   2.437       .  S
Zr1189     O1191   2.455       .  S
Zr1189     O1192   2.428       .  S
Zr1189     O1195   2.420       .  S
Zr1189     O1197   2.368       .  S
Zr1189     O1198   2.407       .  S
Zr1189     O1199   2.391       .  S
Zr1189     O1200   2.394       .  S
O1190      H1246   0.989       .  S
O1190      H1254   0.987       .  S
O1191      C1211   1.290       .  A
O1192      C1213   1.282       .  A
O1193     Zr1203   2.473       .  S
O1193      C1212   1.290       .  A
O1194     Zr1202   2.371       .  S
O1194      C1213   1.275       .  A
O1195      C1212   1.280       .  A
O1196     Zr1204   2.489       .  S
O1196      C1211   1.295       .  A
O1197     Zr1202   2.376       .  S
O1197     Zr1204   2.359       .  S
O1198     Zr1203   2.428       .  S
O1198     Zr1204   2.372       .  S
O1198      H1233   0.966       .  S
O1199     Zr1202   2.383       .  S
O1199     Zr1219   2.376       .  S
O1199      H1236   0.964       .  S
O1200     Zr1203   2.385       .  S
O1200     Zr1219   2.353       .  S
Zr1201     O3658   2.440       .  S
Zr1201     O1228   2.399       .  S
Zr1201     O3652   2.464       .  S
Zr1201     O3648   2.414       .  S
Zr1201     O1207   2.422       .  S
Zr1201     O1208   2.410       .  S
Zr1201     O1209   2.363       .  S
Zr1201     O1210   2.382       .  S
Zr1202     O1221   2.438       .  S
Zr1202     O1214   2.435       .  S
Zr1202     O3647   2.379       .  S
Zr1202     O1208   2.385       .  S
Zr1202     O1209   2.372       .  S
Zr1203     O1205   2.435       .  S
Zr1203     O1227   2.438       .  S
Zr1203     O1229   2.532       .  S
Zr1203     O1207   2.388       .  S
Zr1203     O1210   2.385       .  S
Zr1204     O1230   2.435       .  S
Zr1204     O1231   2.434       .  S
Zr1204     O1206   2.436       .  S
Zr1204     O1207   2.432       .  S
Zr1204     O1208   2.413       .  S
O1205      H1242   0.990       .  S
O1206      H1237   0.990       .  S
O1206      H1251   0.990       .  S
O1208      H3666   0.966       .  S
O1209     Zr1219   2.371       .  S
O1210     Zr1219   2.397       .  S
O1210      H1235   0.965       .  S
C1211      C2232   1.512       .  S
C1212      C2210   1.436       .  S
C1213      C2222   1.445       .  S
O1214      H1250   0.990       .  S
O1215     Zr3634   2.379   1_455  S
O1215      C1217   1.272       .  A
O1216     Zr3633   2.414   1_455  S
O1216      C1217   1.280       .  A
C1217      C2212   1.403       .  S
O1218     Zr1219   2.442       .  S
O1218      H1247   0.990       .  S
Zr1219     O1222   2.439       .  S
Zr1219     O1223   2.444       .  S
Zr1219     O1224   2.381       .  S
O1220     Zr3633   2.464   1_455  S
O1220      C1225   1.286       .  A
O1221      H1253   0.990       .  S
O1221      H3670   0.990       .  S
O1222      H1239   0.990       .  S
O1223      H1243   0.990       .  S
O1223      H1252   0.989       .  S
O1224      C3657   1.269       .  A
C1225      O3656   1.269   1_455  A
C1225      C2213   1.472       .  S
O1226     Zr3633   2.440   1_455  S
O1226      H1245   0.990       .  S
O1226      H1249   0.990       .  S
O1227      H1241   0.990       .  S
O1227      H1248   0.989       .  S
O1228      C1232   1.279       .  A
O1229      C1232   1.303       .  A
O1230      H1240   0.990       .  S
O1231      H3676   0.990       .  S
C1232      C4650   1.513       .  S
H1234      O3640   0.966       .  S
H1238      O3653   0.990       .  S
H1244      O3663   0.990       .  S
Zr1255     O1256   2.429       .  S
Zr1255     O1257   2.449       .  S
Zr1255     O1258   2.413       .  S
Zr1255     O1261   2.438       .  S
Zr1255     O1263   2.374       .  S
Zr1255     O1264   2.400       .  S
Zr1255     O1265   2.420       .  S
Zr1255     O1266   2.388       .  S
O1256      H1312   0.991       .  S
O1256      H1320   0.991       .  S
O1257      C1277   1.287       .  A
O1258      C1279   1.272       .  A
O1259     Zr1269   2.464       .  S
O1259      C1278   1.287       .  A
O1260     Zr1268   2.377       .  S
O1260      C1279   1.270       .  A
O1261      C1278   1.281       .  A
O1262     Zr1270   2.445       .  S
O1262      C1277   1.285       .  A
O1263     Zr1268   2.391       .  S
O1263     Zr1270   2.369       .  S
O1264     Zr1269   2.425       .  S
O1264     Zr1270   2.382       .  S
O1264      H1299   0.966       .  S
O1265     Zr1268   2.392       .  S
O1265     Zr1285   2.368       .  S
O1265      H1302   0.964       .  S
O1266     Zr1269   2.375       .  S
O1266     Zr1285   2.348       .  S
Zr1267     O1292   2.442       .  S
Zr1267     O1286   2.451       .  S
Zr1267     O1294   2.388       .  S
Zr1267     O1282   2.415       .  S
Zr1267     O1273   2.411       .  S
Zr1267     O1274   2.402       .  S
Zr1267     O1275   2.365       .  S
Zr1267     O1276   2.388       .  S
Zr1268     O1287   2.439       .  S
Zr1268     O1280   2.435       .  S
Zr1268     O1281   2.383       .  S
Zr1268     O1274   2.393       .  S
Zr1268     O1275   2.358       .  S
Zr1269     O1271   2.437       .  S
Zr1269     O1293   2.438       .  S
Zr1269     O1295   2.498       .  S
Zr1269     O1273   2.390       .  S
Zr1269     O1276   2.393       .  S
Zr1270     O1296   2.435       .  S
Zr1270     O1297   2.434       .  S
Zr1270     O1272   2.437       .  S
Zr1270     O1273   2.414       .  S
Zr1270     O1274   2.398       .  S
O1271      H1308   0.990       .  S
O1272      H1303   0.990       .  S
O1272      H1317   0.990       .  S
O1274      H1300   0.966       .  S
O1275     Zr1285   2.370       .  S
O1276     Zr1285   2.393       .  S
O1276      H1301   0.965       .  S
C1277      C2226   1.491       .  S
C1278      C2209   1.436       .  S
C1279      C2236   1.437       .  S
O1280      H1316   0.990       .  S
O1281      C1283   1.272       .  A
O1282      C1283   1.280       .  A
C1283      C2211   1.403       .  S
O1284     Zr1285   2.441       .  S
O1284      H1313   0.990       .  S
Zr1285     O1288   2.437       .  S
Zr1285     O1289   2.442       .  S
Zr1285     O1290   2.386       .  S
O1286      C1291   1.283       .  A
O1287      H1304   0.990       .  S
O1287      H1319   0.989       .  S
O1288      H1305   0.990       .  S
O1289      H1309   0.990       .  S
O1289      H1318   0.989       .  S
O1290      C1291   1.269       .  A
C1291      C2202   1.465       .  S
O1292      H1311   0.990       .  S
O1292      H1315   0.990       .  S
O1293      H1307   0.990       .  S
O1293      H1314   0.990       .  S
O1294      C1298   1.278       .  A
O1295      C1298   1.296       .  A
O1296      H1306   0.990       .  S
O1297      H1310   0.990       .  S
C1298      C2206   1.494       .  S
Zr1321     O1322   2.441       .  S
Zr1321     O1323   2.456       .  S
Zr1321     O1324   2.410       .  S
Zr1321     O1327   2.381       .  S
Zr1321     O1329   2.373       .  S
Zr1321     O1330   2.376       .  S
Zr1321     O1331   2.411       .  S
Zr1321     O1332   2.414       .  S
O1322      H1378   0.991       .  S
O1322      H1386   0.990       .  S
O1323      C1343   1.288       .  A
O1324      C1345   1.278       .  A
O1325     Zr1335   2.460       .  S
O1325      C1344   1.290       .  A
O1326     Zr1334   2.465       .  S
O1326      C1345   1.286       .  A
O1327      C1344   1.275       .  A
O1328     Zr1336   2.474       .  S
O1328      C1343   1.289       .  A
O1329     Zr1334   2.398       .  S
O1329     Zr1336   2.385       .  S
O1330     Zr1335   2.392       .  S
O1330     Zr1336   2.368       .  S
O1330      H1365   0.966       .  S
O1331     Zr1334   2.407       .  S
O1331     Zr1351   2.410       .  S
O1331      H1368   0.965       .  S
O1332     Zr1335   2.390       .  S
O1332     Zr1351   2.416       .  S
Zr1333     O1358   2.443       .  S
Zr1333     O1352   2.489       .  S
Zr1333     O1360   2.399       .  S
Zr1333     O1348   2.380       .  S
Zr1333     O1339   2.406       .  S
Zr1333     O1340   2.425       .  S
Zr1333     O1341   2.367       .  S
Zr1333     O1342   2.368       .  S
Zr1334     O1353   2.441       .  S
Zr1334     O1346   2.436       .  S
Zr1334     O1347   2.451       .  S
Zr1334     O1340   2.402       .  S
Zr1334     O1341   2.406       .  S
Zr1335     O1337   2.435       .  S
Zr1335     O1359   2.437       .  S
Zr1335     O1361   2.452       .  S
Zr1335     O1339   2.392       .  S
Zr1335     O1342   2.402       .  S
Zr1336     O1362   2.436       .  S
Zr1336     O1363   2.436       .  S
Zr1336     O1338   2.437       .  S
Zr1336     O1339   2.409       .  S
Zr1336     O1340   2.422       .  S
O1337      H1374   0.990       .  S
O1338      H1369   0.990       .  S
O1338      H1383   0.990       .  S
O1340      H1366   0.966       .  S
O1341     Zr1351   2.368       .  S
O1342     Zr1351   2.382       .  S
O1342      H1367   0.966       .  S
C1343      C2194   1.504       .  S
C1344      C2198   1.468       .  S
C1345      C2191   1.438       .  S
O1346      H1382   0.990       .  S
O1347      C1349   1.285       .  A
O1348      C1349   1.273       .  A
C1349      C2289   1.466       .  S
O1350     Zr1351   2.438       .  S
O1350      H1379   0.990       .  S
Zr1351     O1354   2.437       .  S
Zr1351     O1355   2.438       .  S
Zr1351     O1356   2.472       .  S
O1352      C1357   1.295       .  A
O1353      H1370   0.990       .  S
O1353      H1385   0.990       .  S
O1354      H1371   0.990       .  S
O1355      H1375   0.990       .  S
O1355      H1384   0.990       .  S
O1356      C1357   1.287       .  A
C1357      C2286   1.521       .  S
O1358      H1377   0.990       .  S
O1358      H1381   0.990       .  S
O1359      H1373   0.990       .  S
O1359      H1380   0.990       .  S
O1360      C1364   1.277       .  A
O1361      C1364   1.286       .  A
O1362      H1372   0.990       .  S
O1363      H1376   0.990       .  S
C1364      C2189   1.433       .  S
Zr1387     O1388   2.442       .  S
Zr1387     O1393   2.391       .  S
Zr1387     O3821   2.489   1_455  S
Zr1387     O3822   2.444   1_455  S
Zr1387     O1396   2.394       .  S
Zr1387     O1397   2.419       .  S
Zr1387     O1398   2.423       .  S
Zr1387     O3827   2.368   1_455  S
O1388      H1444   0.990   1_455  S
O1388      H1452   0.990       .  S
O1389     Zr3819   2.489       .  S
O1389      C1409   1.294       .  A
O1390     Zr3819   2.444       .  S
O1390      C1411   1.284       .  A
O1391     Zr1401   2.407       .  S
O1391      C1410   1.271       .  A
O1392     Zr3832   2.480       .  S
O1392      C1411   1.292       .  A
O1393      C1410   1.267       .  A
O1394     Zr1402   2.481       .  S
O1394      C1409   1.290       .  A
O1395     Zr1402   2.380       .  S
O1395     Zr3819   2.368       .  S
O1395     Zr3832   2.404       .  S
O1396     Zr1401   2.424       .  S
O1396     Zr3834   2.363   1_455  S
O1396      H1431   0.965       .  S
O1397     Zr1400   2.398   1_455  S
O1397     Zr1417   2.429       .  S
O1397      H1434   0.966       .  S
O1398     Zr1401   2.405       .  S
O1398     Zr1417   2.398       .  S
Zr1399     O1424   2.444       .  S
Zr1399     O1418   2.454       .  S
Zr1399     O1426   2.414       .  S
Zr1399     O1414   2.373       .  S
Zr1399     O1405   2.398       .  S
Zr1399     O1406   2.419   1_455  S
Zr1399     O1407   2.373       .  S
Zr1399     O1408   2.367       .  S
Zr1400     O1419   2.437   1_655  S
Zr1400     O3844   2.434       .  S
Zr1400     O3824   2.479       .  S
Zr1400     O3845   2.474   1_655  S
Zr1400     O1406   2.402       .  S
Zr1400     O1407   2.390   1_655  S
Zr1400     O3827   2.404       .  S
Zr1401     O1403   2.435       .  S
Zr1401     O1425   2.437       .  S
Zr1401     O1427   2.451       .  S
Zr1401     O1405   2.383       .  S
Zr1401     O1408   2.386       .  S
Zr1402     O1428   2.435       .  S
Zr1402     O1429   2.435       .  S
Zr1402     O1404   2.436       .  S
Zr1402     O3828   2.363       .  S
Zr1402     O3837   2.413       .  S
Zr1402     O3838   2.423       .  S
O1403      H1440   0.990       .  S
O1404      H1435   0.990       .  S
O1404      H1449   0.990       .  S
O1405     Zr3834   2.413   1_455  S
O1406     Zr3834   2.423       .  S
O1406      H3864   0.966       .  S
O1407     Zr1417   2.363       .  S
O1408     Zr1417   2.393       .  S
O1408      H1433   0.966       .  S
C1409      C2182   1.524       .  S
C1410      C2186   1.430       .  S
C1411      C2178   1.464       .  S
O1412     Zr3832   2.434       .  S
O1412      H1448   0.990       .  S
O1413     Zr3832   2.474       .  S
O1413      C3847   1.294       .  A
O1414      C1415   1.273       .  A
C1415      O3845   1.294       .  A
C1415      C2254   1.470       .  S
O1416     Zr1417   2.440       .  S
O1416      H1445   0.990       .  S
Zr1417     O1420   2.437       .  S
Zr1417     O1421   2.439       .  S
Zr1417     O1422   2.466       .  S
O1418      C1423   1.289       .  A
O1419      H1451   0.990       .  S
O1419      H3868   0.990   1_455  S
O1420      H1437   0.990       .  S
O1421      H1441   0.990       .  S
O1421      H1450   0.990       .  S
O1422      C1423   1.288       .  A
C1423      C2317   1.499       .  S
O1424      H1443   0.990       .  S
O1424      H1447   0.990       .  S
O1425      H1439   0.990       .  S
O1425      H1446   0.990       .  S
O1426      C1430   1.279       .  A
O1427      C1430   1.285       .  A
O1428      H1438   0.990       .  S
O1429      H1442   0.990       .  S
C1430      C2180   1.440       .  S
H1432      O3838   0.966       .  S
H1436      O3851   0.990       .  S
Zr1453     O1454   2.442       .  S
Zr1453     O1455   2.477       .  S
Zr1453     O1456   2.416       .  S
Zr1453     O1459   2.365       .  S
Zr1453     O1461   2.369       .  S
Zr1453     O1462   2.377       .  S
Zr1453     O1463   2.411       .  S
Zr1453     O1464   2.420       .  S
O1454      H1510   0.991       .  S
O1454      H1518   0.990       .  S
O1455      C1475   1.293       .  A
O1456      C1477   1.279       .  A
O1457     Zr1467   2.457       .  S
O1457      C1476   1.288       .  A
O1458     Zr1466   2.458       .  S
O1458      C1477   1.286       .  A
O1459      C1476   1.272       .  A
O1460     Zr1468   2.487       .  S
O1460      C1475   1.291       .  A
O1461     Zr1466   2.404       .  S
O1461     Zr1468   2.385       .  S
O1462     Zr1467   2.399       .  S
O1462     Zr1468   2.363       .  S
O1462      H1497   0.966       .  S
O1463     Zr1466   2.402       .  S
O1463     Zr1483   2.409       .  S
O1463      H1500   0.965       .  S
O1464     Zr1467   2.392       .  S
O1464     Zr1483   2.417       .  S
Zr1465     O1490   2.446       .  S
Zr1465     O1484   2.476       .  S
Zr1465     O1492   2.404       .  S
Zr1465     O1480   2.381       .  S
Zr1465     O1471   2.407       .  S
Zr1465     O1472   2.420       .  S
Zr1465     O1473   2.366       .  S
Zr1465     O1474   2.369       .  S
Zr1466     O1485   2.438       .  S
Zr1466     O1478   2.435       .  S
Zr1466     O1479   2.454       .  S
Zr1466     O1472   2.396       .  S
Zr1466     O1473   2.396       .  S
Zr1467     O1469   2.436       .  S
Zr1467     O1491   2.437       .  S
Zr1467     O1493   2.462       .  S
Zr1467     O1471   2.389       .  S
Zr1467     O1474   2.395       .  S
Zr1468     O1494   2.436       .  S
Zr1468     O1495   2.435       .  S
Zr1468     O1470   2.436       .  S
Zr1468     O1471   2.415       .  S
Zr1468     O1472   2.424       .  S
O1469      H1506   0.990       .  S
O1470      H1501   0.990       .  S
O1470      H1515   0.990       .  S
O1472      H1498   0.966       .  S
O1473     Zr1483   2.369       .  S
O1474     Zr1483   2.382       .  S
O1474      H1499   0.966       .  S
C1475      C2173   1.520       .  S
C1476      C2169   1.460       .  S
C1477      C2192   1.438       .  S
O1478      H1514   0.990       .  S
O1479      C1481   1.288       .  A
O1480      C1481   1.275       .  A
C1481      C2314   1.469       .  S
O1482     Zr1483   2.439       .  S
O1482      H1511   0.990       .  S
Zr1483     O1486   2.437       .  S
Zr1483     O1487   2.439       .  S
Zr1483     O1488   2.475       .  S
O1484      C1489   1.293       .  A
O1485      H1502   0.990       .  S
O1485      H1517   0.990       .  S
O1486      H1503   0.990       .  S
O1487      H1507   0.990       .  S
O1487      H1516   0.990       .  S
O1488      C1489   1.289       .  A
C1489      C2257   1.515       .  S
O1490      H1509   0.990       .  S
O1490      H1513   0.990       .  S
O1491      H1505   0.990       .  S
O1491      H1512   0.990       .  S
O1492      C1496   1.278       .  A
O1493      C1496   1.288       .  A
O1494      H1504   0.990       .  S
O1495      H1508   0.990       .  S
C1496      C2179   1.439       .  S
Zr1519     O1520   2.442       .  S
Zr1519     O1521   2.468       .  S
Zr1519     O1522   2.436       .  S
Zr1519     O1525   2.398       .  S
Zr1519     O1527   2.372       .  S
Zr1519     O1528   2.390       .  S
Zr1519     O1529   2.416       .  S
Zr1519     O1530   2.412       .  S
O1520      H1576   0.990       .  S
O1520      H1584   0.990       .  S
O1521      C1541   1.290       .  A
O1522      C1543   1.282       .  A
O1523     Zr1533   2.398       .  S
O1523      C1542   1.270       .  A
O1524     Zr1532   2.486       .  S
O1524      C1543   1.293       .  A
O1525      C1542   1.270       .  A
O1526     Zr1534   2.475       .  S
O1526      C1541   1.290       .  A
O1527     Zr1532   2.402       .  S
O1527     Zr1534   2.379       .  S
O1528     Zr1533   2.408       .  S
O1528     Zr1534   2.364       .  S
O1528      H1563   0.965       .  S
O1529     Zr1532   2.401       .  S
O1529     Zr1549   2.426       .  S
O1529      H1566   0.966       .  S
O1530     Zr1533   2.402       .  S
O1530     Zr1549   2.392       .  S
Zr1531     O1556   2.444       .  S
Zr1531     O1550   2.459       .  S
Zr1531     O1558   2.419       .  S
Zr1531     O1546   2.383       .  S
Zr1531     O1537   2.397       .  S
Zr1531     O1538   2.421   1_554  S
Zr1531     O1539   2.374   1_554  S
Zr1531     O1540   2.367   1_554  S
Zr1532     O1551   2.437       .  S
Zr1532     O1544   2.435       .  S
Zr1532     O1545   2.478       .  S
Zr1532     O1538   2.403       .  S
Zr1532     O1539   2.394       .  S
Zr1533     O1535   2.435       .  S
Zr1533     O1557   2.437       .  S
Zr1533     O1559   2.435   1_556  S
Zr1533     O1537   2.383   1_556  S
Zr1533     O1540   2.382       .  S
Zr1534     O1560   2.435   1_556  S
Zr1534     O1561   2.435   1_556  S
Zr1534     O1536   2.436       .  S
Zr1534     O1537   2.411   1_556  S
Zr1534     O1538   2.422       .  S
O1535      H1572   0.990       .  S
O1536      H1567   0.990       .  S
O1536      H1581   0.990       .  S
O1538      H1564   0.966   1_556  S
O1539     Zr1549   2.363       .  S
O1540     Zr1549   2.392       .  S
O1540      H1565   0.966       .  S
C1541      C2166   1.510       .  S
C1542      C2161   1.427       .  S
C1543      C2177   1.464       .  S
O1544      H1580   0.990       .  S
O1545      C1547   1.294   1_556  A
O1546      C1547   1.276       .  A
C1547      C2281   1.478       .  S
O1548     Zr1549   2.439       .  S
O1548      H1577   0.990       .  S
Zr1549     O1552   2.437       .  S
Zr1549     O1553   2.438       .  S
Zr1549     O1554   2.460       .  S
O1550      C1555   1.290   1_554  A
O1551      H1568   0.990       .  S
O1551      H1583   0.990       .  S
O1552      H1569   0.990       .  S
O1553      H1573   0.990       .  S
O1553      H1582   0.990       .  S
O1554      C1555   1.287       .  A
C1555      C2294   1.497   1_556  S
O1556      H1575   0.990       .  S
O1556      H1579   0.990       .  S
O1557      H1571   0.990       .  S
O1557      H1578   0.990       .  S
O1558      C1562   1.281       .  A
O1559      C1562   1.282       .  A
O1560      H1570   0.990       .  S
O1561      H1574   0.990       .  S
C1562      C2190   1.435       .  S
Zr1585     O1586   2.446       .  S
Zr1585     O1587   2.456       .  S
Zr1585     O1588   2.423   1_545  S
Zr1585     O1591   2.375       .  S
Zr1585     O1593   2.367       .  S
Zr1585     O1594   2.380       .  S
Zr1585     O1595   2.410   1_545  S
Zr1585     O1596   2.420       .  S
O1586      H1642   0.991       .  S
O1586      H1650   0.991       .  S
O1587      C1607   1.286       .  A
O1588      C1609   1.278       .  A
O1589     Zr1599   2.452       .  S
O1589      C1608   1.287       .  A
O1590     Zr1598   2.433       .  S
O1590      C1609   1.279       .  A
O1591      C1608   1.273       .  A
O1592     Zr1600   2.443       .  S
O1592      C1607   1.282       .  A
O1593     Zr1598   2.398   1_545  S
O1593     Zr1600   2.389       .  S
O1594     Zr1599   2.408       .  S
O1594     Zr1600   2.373       .  S
O1594      H1629   0.966       .  S
O1595     Zr1598   2.402       .  S
O1595     Zr1615   2.404       .  S
O1595      H1632   0.964       .  S
O1596     Zr1599   2.401       .  S
O1596     Zr1615   2.418   1_545  S
Zr1597     O1622   2.444       .  S
Zr1597     O1616   2.471       .  S
Zr1597     O1624   2.393   1_565  S
Zr1597     O1612   2.335       .  S
Zr1597     O1603   2.392   1_565  S
Zr1597     O1604   2.410   1_554  S
Zr1597     O1605   2.360   1_554  S
Zr1597     O1606   2.361   1_564  S
Zr1598     O1617   2.438       .  S
Zr1598     O1610   2.435       .  S
Zr1598     O1611   2.416       .  S
Zr1598     O1604   2.400       .  S
Zr1598     O1605   2.393       .  S
Zr1599     O1601   2.435       .  S
Zr1599     O1623   2.436       .  S
Zr1599     O1625   2.478   1_556  S
Zr1599     O1603   2.386   1_556  S
Zr1599     O1606   2.394       .  S
Zr1600     O1626   2.436   1_556  S
Zr1600     O1627   2.436   1_556  S
Zr1600     O1602   2.436       .  S
Zr1600     O1603   2.406   1_556  S
Zr1600     O1604   2.404   1_545  S
O1601      H1638   0.990       .  S
O1602      H1633   0.990       .  S
O1602      H1647   0.990       .  S
O1604      H1630   0.966   1_556  S
O1605     Zr1615   2.357       .  S
O1606     Zr1615   2.382   1_545  S
O1606      H1631   0.965       .  S
C1607      C2154   1.492       .  S
C1608      C2158   1.463       .  S
C1609      C2150   1.428       .  S
O1610      H1646   0.990       .  S
O1611      C1613   1.279   1_556  A
O1612      C1613   1.269       .  A
C1613      C2405   1.440       .  S
O1614     Zr1615   2.439       .  S
O1614      H1643   0.990       .  S
Zr1615     O1618   2.438       .  S
Zr1615     O1619   2.440       .  S
Zr1615     O1620   2.477       .  S
O1616      C1621   1.292   1_554  A
O1617      H1634   0.990       .  S
O1617      H1649   0.990       .  S
O1618      H1635   0.990       .  S
O1619      H1639   0.990       .  S
O1619      H1648   0.990       .  S
O1620      C1621   1.290       .  A
C1621      C2429   1.517   1_556  S
O1622      H1641   0.991       .  S
O1622      H1645   0.990       .  S
O1623      H1637   0.990       .  S
O1623      H1644   0.990       .  S
O1624      C1628   1.276       .  A
O1625      C1628   1.291       .  A
O1626      H1636   0.990       .  S
O1627      H1640   0.990       .  S
C1628      C2152   1.442       .  S
Zr1651     O1652   2.441       .  S
Zr1651     O1653   2.458       .  S
Zr1651     O1654   2.424       .  S
Zr1651     O1657   2.348       .  S
Zr1651     O1659   2.363       .  S
Zr1651     O1660   2.382       .  S
Zr1651     O1661   2.392   1_545  S
Zr1651     O1662   2.410       .  S
O1652      H1708   0.990       .  S
O1652      H1716   0.990       .  S
O1653      C1673   1.289       .  A
O1654      C1675   1.280   1_545  A
O1655     Zr1665   2.412       .  S
O1655      C1674   1.277       .  A
O1656     Zr1664   2.465       .  S
O1656      C1675   1.288       .  A
O1657      C1674   1.273       .  A
O1658     Zr1666   2.450       .  S
O1658      C1673   1.286       .  A
O1659     Zr1664   2.390   1_545  S
O1659     Zr1666   2.382       .  S
O1660     Zr1665   2.401       .  S
O1660     Zr1666   2.361       .  S
O1660      H1695   0.965       .  S
O1661     Zr1664   2.392       .  S
O1661     Zr1681   2.408       .  S
O1661      H1698   0.966       .  S
O1662     Zr1665   2.402       .  S
O1662     Zr1681   2.400   1_545  S
Zr1663     O1688   2.446       .  S
Zr1663     O1682   2.444       .  S
Zr1663     O1690   2.420   1_565  S
Zr1663     O1678   2.339       .  S
Zr1663     O1669   2.381   1_565  S
Zr1663     O1670   2.412       .  S
Zr1663     O1671   2.372       .  S
Zr1663     O1672   2.362       .  S
Zr1664     O1683   2.437       .  S
Zr1664     O1676   2.435       .  S
Zr1664     O1677   2.431       .  S
Zr1664     O1670   2.408       .  S
Zr1664     O1671   2.393       .  S
Zr1665     O1667   2.435       .  S
Zr1665     O1689   2.439       .  S
Zr1665     O1691   2.453       .  S
Zr1665     O1669   2.382       .  S
Zr1665     O1672   2.382   1_545  S
Zr1666     O1692   2.435       .  S
Zr1666     O1693   2.435       .  S
Zr1666     O1668   2.436       .  S
Zr1666     O1669   2.404       .  S
Zr1666     O1670   2.403   1_545  S
O1667      H1704   0.990       .  S
O1668      H1699   0.990       .  S
O1668      H1713   0.990       .  S
O1670      H1696   0.966       .  S
O1671     Zr1681   2.358       .  S
O1672     Zr1681   2.393       .  S
O1672      H1697   0.966       .  S
C1673      C2144   1.498       .  S
C1674      C2139   1.432       .  S
C1675      C2147   1.449       .  S
O1676      H1712   0.990       .  S
O1677      C1679   1.283       .  A
O1678      C1679   1.269       .  A
C1679      C2426   1.448       .  S
O1680     Zr1681   2.439       .  S
O1680      H1709   0.990       .  S
Zr1681     O1684   2.438       .  S
Zr1681     O1685   2.440       .  S
Zr1681     O1686   2.444       .  S
O1682      C1687   1.287       .  A
O1683      H1700   0.990       .  S
O1683      H1715   0.990       .  S
O1684      H1701   0.990       .  S
O1685      H1705   0.990       .  S
O1685      H1714   0.989       .  S
O1686      C1687   1.286       .  A
C1687      C2409   1.490       .  S
O1688      H1707   0.990       .  S
O1688      H1711   0.990       .  S
O1689      H1703   0.990       .  S
O1689      H1710   0.990       .  S
O1690      C1694   1.281       .  A
O1691      C1694   1.285       .  A
O1692      H1702   0.990       .  S
O1693      H1706   0.990       .  S
C1694      C2151   1.445       .  S
Zr1717     O1718   2.443       .  S
Zr1717     O1719   2.472       .  S
Zr1717     O1720   2.409   1_545  S
Zr1717     O1723   2.371       .  S
Zr1717     O1725   2.370       .  S
Zr1717     O1726   2.376       .  S
Zr1717     O1727   2.412   1_545  S
Zr1717     O1728   2.418       .  S
O1718      H1774   0.991       .  S
O1718      H1782   0.990       .  S
O1719      C1739   1.291       .  A
O1720      C1741   1.277       .  A
O1721     Zr1731   2.455       .  S
O1721      C1740   1.288       .  A
O1722     Zr1730   2.441       .  S
O1722      C1741   1.282       .  A
O1723      C1740   1.273       .  A
O1724     Zr1732   2.488       .  S
O1724      C1739   1.291       .  A
O1725     Zr1730   2.406   1_545  S
O1725     Zr1732   2.383       .  S
O1726     Zr1731   2.402       .  S
O1726     Zr1732   2.366       .  S
O1726      H1761   0.966       .  S
O1727     Zr1730   2.405       .  S
O1727     Zr1747   2.405       .  S
O1727      H1764   0.965       .  S
O1728     Zr1731   2.393       .  S
O1728     Zr1747   2.415   1_545  S
Zr1729     O1754   2.445       .  S
Zr1729     O1748   2.471       .  S
Zr1729     O1756   2.397   1_565  S
Zr1729     O1744   2.378       .  S
Zr1729     O1735   2.406   1_565  S
Zr1729     O1736   2.417       .  S
Zr1729     O1737   2.362       .  S
Zr1729     O1738   2.369   1_565  S
Zr1730     O1749   2.439       .  S
Zr1730     O1742   2.435       .  S
Zr1730     O1743   2.448       .  S
Zr1730     O1736   2.393       .  S
Zr1730     O1737   2.391       .  S
Zr1731     O1733   2.436       .  S
Zr1731     O1755   2.437       .  S
Zr1731     O1757   2.464       .  S
Zr1731     O1735   2.390       .  S
Zr1731     O1738   2.393       .  S
Zr1732     O1758   2.436       .  S
Zr1732     O1759   2.435       .  S
Zr1732     O1734   2.436       .  S
Zr1732     O1735   2.415       .  S
Zr1732     O1736   2.425   1_545  S
O1733      H1770   0.990       .  S
O1734      H1765   0.990       .  S
O1734      H1779   0.990       .  S
O1736      H1762   0.966       .  S
O1737     Zr1747   2.368       .  S
O1738     Zr1747   2.382   1_545  S
O1738      H1763   0.966       .  S
C1739      C2136   1.519       .  S
C1740      C2132   1.463       .  S
C1741      C2149   1.427       .  S
O1742      H1778   0.990       .  S
O1743      C1745   1.287       .  A
O1744      C1745   1.275       .  A
C1745      C2201   1.466       .  S
O1746     Zr1747   2.439       .  S
O1746      H1775   0.990       .  S
Zr1747     O1750   2.438       .  S
Zr1747     O1751   2.439   1_565  S
Zr1747     O1752   2.466       .  S
O1748      C1753   1.292       .  A
O1749      H1766   0.990       .  S
O1749      H1781   0.990       .  S
O1750      H1767   0.990       .  S
O1751      H1771   0.990   1_545  S
O1751      H1780   0.990       .  S
O1752      C1753   1.287       .  A
C1753      C2217   1.508       .  S
O1754      H1773   0.990       .  S
O1754      H1777   0.990       .  S
O1755      H1769   0.990       .  S
O1755      H1776   0.990       .  S
O1756      C1760   1.277       .  A
O1757      C1760   1.288       .  A
O1758      H1768   0.990       .  S
O1759      H1772   0.990       .  S
C1760      C2129   1.437       .  S
Zr1783     O1784   2.446       .  S
Zr1783     O1789   2.386       .  S
Zr1783     O4217   2.496   1_455  S
Zr1783     O4218   2.430   1_455  S
Zr1783     O1792   2.391       .  S
Zr1783     O1793   2.416   1_545  S
Zr1783     O1794   2.424       .  S
Zr1783     O4223   2.370   1_455  S
O1784      H1840   0.991       .  S
O1784      H1848   0.991       .  S
O1785     Zr4215   2.496       .  S
O1785      C1805   1.296       .  A
O1786     Zr4215   2.429       .  S
O1786      C1807   1.280   1_545  A
O1787     Zr1797   2.397       .  S
O1787      C1806   1.271       .  A
O1788     Zr4228   2.462       .  S
O1788      C1807   1.287       .  A
O1789      C1806   1.270       .  A
O1790     Zr1798   2.479       .  S
O1790      C1805   1.290       .  A
O1791     Zr1798   2.381       .  S
O1791     Zr4215   2.370       .  S
O1791     Zr4228   2.405   1_545  S
O1792     Zr1797   2.423       .  S
O1792     Zr4230   2.363   1_455  S
O1792      H1827   0.965       .  S
O1793     Zr1796   2.397   1_455  S
O1793     Zr1813   2.418       .  S
O1793      H1830   0.966       .  S
O1794     Zr1797   2.401       .  S
O1794     Zr1813   2.400   1_545  S
Zr1795     O1820   2.446       .  S
Zr1795     O1814   2.443       .  S
Zr1795     O1822   2.418   1_565  S
Zr1795     O1810   2.386       .  S
Zr1795     O1801   2.395   1_565  S
Zr1795     O1802   2.415   1_455  S
Zr1795     O1803   2.373       .  S
Zr1795     O1804   2.371   1_565  S
Zr1796     O1815   2.437   1_655  S
Zr1796     O4240   2.434       .  S
Zr1796     O4220   2.462       .  S
Zr1796     O4241   2.459   1_655  S
Zr1796     O1802   2.400       .  S
Zr1796     O1803   2.389   1_655  S
Zr1796     O4223   2.405   1_565  S
Zr1797     O1799   2.436       .  S
Zr1797     O1821   2.439       .  S
Zr1797     O1823   2.445       .  S
Zr1797     O1801   2.384       .  S
Zr1797     O1804   2.378       .  S
Zr1798     O1825   2.435       .  S
Zr1798     O1800   2.435       .  S
Zr1798     O4256   2.435       .  S
Zr1798     O4224   2.363       .  S
Zr1798     O4233   2.410       .  S
Zr1798     O4234   2.420   1_545  S
O1799      H1836   0.990       .  S
O1800      H1831   0.990       .  S
O1800      H1845   0.990       .  S
O1801     Zr4230   2.410   1_455  S
O1802     Zr4230   2.420   1_565  S
O1802      H4260   0.966       .  S
O1803     Zr1813   2.366       .  S
O1804     Zr1813   2.390   1_545  S
O1804      H1829   0.966       .  S
C1805      C2121   1.527       .  S
C1806      C2125   1.435       .  S
C1807      C2148   1.448       .  S
O1808     Zr4228   2.434       .  S
O1808      H1844   0.990       .  S
O1809     Zr4228   2.459       .  S
O1809      C4243   1.290       .  A
O1810      C1811   1.276       .  A
C1811      O4241   1.290       .  A
C1811      C2214   1.472       .  S
O1812     Zr1813   2.440       .  S
O1812      H1841   0.990       .  S
Zr1813     O1816   2.437       .  S
Zr1813     O1817   2.439       .  S
Zr1813     O1818   2.454       .  S
O1814      C1819   1.287       .  A
O1815      H1847   0.990       .  S
O1815      H4264   0.990   1_455  S
O1816      H1833   0.990       .  S
O1817      H1837   0.990       .  S
O1817      H1846   0.990   1_565  S
O1818      C1819   1.286       .  A
C1819      C2205   1.487       .  S
O1820      H1839   0.990       .  S
O1820      H1843   0.990       .  S
O1821      H1835   0.990       .  S
O1821      H1842   0.990       .  S
O1822      C1826   1.280       .  A
O1823      C1826   1.284       .  A
O1824     Zr4230   2.435       .  S
O1824      H4266   0.990       .  S
O1825      H1838   0.990       .  S
C1826      C2130   1.438       .  S
H1828      O4234   0.966       .  S
H1832      O4247   0.990       .  S
H1834      O4256   0.990       .  S
Zr1849     O4282   2.441   1_455  S
Zr1849     O1851   2.438   1_455  S
Zr1849     O1855   2.422       .  S
Zr1849     O4284   2.434   1_455  S
Zr1849     O1857   2.396       .  S
Zr1849     O1858   2.403       .  S
Zr1849     O1859   2.413       .  S
Zr1849     O1860   2.394       .  S
O1850     Zr4281   2.441       .  S
O1850      H1906   0.989       .  S
O1850      H1914   0.989       .  S
O1851      C1871   1.287       .  A
O1852     Zr4281   2.434       .  S
O1852      C1873   1.284       .  A
O1853     Zr1863   2.402       .  S
O1853      C1872   1.270       .  A
O1854     Zr4294   2.456       .  S
O1854      C1873   1.286       .  A
O1855      C1872   1.269       .  A
O1856     Zr1864   2.480       .  S
O1856      C1871   1.293   1_455  A
O1857     Zr1862   2.414       .  S
O1857     Zr1864   2.380       .  S
O1858     Zr1863   2.377       .  S
O1858     Zr1864   2.358       .  S
O1858      H1893   0.965       .  S
O1859     Zr1862   2.425       .  S
O1859     Zr1879   2.352       .  S
O1859      H1896   0.962       .  S
O1860     Zr1863   2.364       .  S
O1860     Zr1879   2.341       .  S
Zr1861     O1886   2.440       .  S
Zr1861     O1880   2.470       .  S
Zr1861     O1888   2.416       .  S
Zr1861     O1876   2.410       .  S
Zr1861     O1867   2.414       .  S
Zr1861     O1868   2.419       .  S
Zr1861     O1869   2.376       .  S
Zr1861     O1870   2.374       .  S
Zr1862     O1881   2.438       .  S
Zr1862     O1874   2.434       .  S
Zr1862     O1875   2.512       .  S
Zr1862     O4286   2.456   1_455  S
Zr1862     O1868   2.393       .  S
Zr1862     O1869   2.393       .  S
Zr1863     O1865   2.442       .  S
Zr1863     O1887   2.442       .  S
Zr1863     O1889   2.397       .  S
Zr1863     O1867   2.389       .  S
Zr1863     O1870   2.363       .  S
Zr1864     O1890   2.436       .  S
Zr1864     O1891   2.435       .  S
Zr1864     O1866   2.436       .  S
Zr1864     O1867   2.413       .  S
Zr1864     O1868   2.425       .  S
O1865      H1902   0.989       .  S
O1866      H1897   0.990       .  S
O1866      H1911   0.990       .  S
O1868      H1894   0.966       .  S
O1869     Zr1879   2.385       .  S
O1870     Zr1879   2.382       .  S
O1870      H1895   0.965       .  S
C1871      C4575   1.498       .  S
C1872      C2126   1.446       .  S
C1873      C2119   1.438       .  S
O1874      H1910   0.990   1_455  S
O1875      C1877   1.299       .  A
O1876      C1877   1.281       .  A
C1877      C2193   1.509       .  S
O1878     Zr1879   2.442       .  S
O1878      H1907   0.990       .  S
Zr1879     O1882   2.437       .  S
Zr1879     O1883   2.437       .  S
Zr1879     O1884   2.361       .  S
O1880      C1885   1.287       .  A
O1881      H1898   0.990       .  S
O1881      H1913   0.990       .  S
O1882      H1899   0.990       .  S
O1883      H1903   0.990       .  S
O1883      H1912   0.990       .  S
O1884      C1885   1.264       .  A
C1885      C2170   1.465       .  S
O1886      H1905   0.990       .  S
O1886      H1909   0.990       .  S
O1887      H1901   0.989       .  S
O1887      H1908   0.990       .  S
O1888      C1892   1.281       .  A
O1889      C1892   1.274       .  A
O1890      H1900   0.990       .  S
O1891      H1904   0.990       .  S
C1892      C2117   1.408       .  S
Zr1915     O1916   2.424       .  S
Zr1915     O1917   2.461       .  S
Zr1915     O1918   2.443       .  S
Zr1915     O1921   2.434       .  S
Zr1915     O1923   2.401       .  S
Zr1915     O1924   2.392       .  S
Zr1915     O1925   2.427       .  S
Zr1915     O1926   2.400       .  S
O1916      H1972   0.989       .  S
O1916      H1980   0.984       .  S
O1917      C1937   1.289       .  A
O1918      C1939   1.280       .  A
O1919     Zr1929   2.393       .  S
O1919      C1938   1.267       .  A
O1920     Zr1928   2.441       .  S
O1920      C1939   1.281       .  A
O1921      C1938   1.277       .  A
O1922     Zr1930   2.518       .  S
O1922      C1937   1.300       .  A
O1923     Zr1928   2.426       .  S
O1923     Zr1930   2.371       .  S
O1924     Zr1929   2.394       .  S
O1924     Zr1930   2.344       .  S
O1924      H1959   0.965       .  S
O1925     Zr1928   2.453       .  S
O1925     Zr1945   2.344       .  S
O1925      H1962   0.962       .  S
O1926     Zr1929   2.378       .  S
O1926     Zr1945   2.367       .  S
Zr1927     O1952   2.435       .  S
Zr1927     O1946   2.463       .  S
Zr1927     O1954   2.419       .  S
Zr1927     O1942   2.420       .  S
Zr1927     O1933   2.417       .  S
Zr1927     O1934   2.424       .  S
Zr1927     O1935   2.407       .  S
Zr1927     O1936   2.421       .  S
Zr1928     O1947   2.438       .  S
Zr1928     O1940   2.434       .  S
Zr1928     O1941   2.533       .  S
Zr1928     O1934   2.395       .  S
Zr1928     O1935   2.373       .  S
Zr1929     O1931   2.438       .  S
Zr1929     O1953   2.441       .  S
Zr1929     O1955   2.391       .  S
Zr1929     O1933   2.391       .  S
Zr1929     O1936   2.375       .  S
Zr1930     O1956   2.436       .  S
Zr1930     O1957   2.434       .  S
Zr1930     O1932   2.435       .  S
Zr1930     O1933   2.423       .  S
Zr1930     O1934   2.437       .  S
O1931      H1968   0.990       .  S
O1932      H1963   0.990       .  S
O1932      H1977   0.990       .  S
O1934      H1960   0.966       .  S
O1935     Zr1945   2.397       .  S
O1936     Zr1945   2.389       .  S
O1936      H1961   0.966       .  S
C1937      C2181   1.526       .  S
C1938      C2162   1.454       .  S
C1939      C2113   1.432       .  S
O1940      H1976   0.990       .  S
O1941      C1943   1.304       .  A
O1942      C1943   1.282       .  A
C1943      C2135   1.524       .  S
O1944     Zr1945   2.441       .  S
O1944      H1973   0.990       .  S
Zr1945     O1948   2.438       .  S
Zr1945     O1949   2.440       .  S
Zr1945     O1950   2.328       .  S
O1946      C1951   1.264       .  A
O1947      H1964   0.990       .  S
O1947      H1979   0.990       .  S
O1948      H1965   0.990       .  S
O1949      H1969   0.990       .  S
O1949      H1978   0.990       .  S
O1950      C1951   1.248       .  A
C1951      C2157   1.466       .  S
O1952      H1971   0.990       .  S
O1952      H1975   0.990       .  S
O1953      H1967   0.990       .  S
O1953      H1974   0.990       .  S
O1954      C1958   1.281       .  A
O1955      C1958   1.273       .  A
O1956      H1966   0.990       .  S
O1957      H1970   0.990       .  S
C1958      C2116   1.411       .  S
Zr1981     O1982   2.428       .  S
Zr1981     O1983   2.464       .  S
Zr1981     O1984   2.439       .  S
Zr1981     O1987   2.413       .  S
Zr1981     O1989   2.396       .  S
Zr1981     O1990   2.383       .  S
Zr1981     O1991   2.418       .  S
Zr1981     O1992   2.386       .  S
O1982      H2038   0.978       .  S
O1982      H2046   0.991       .  S
O1983      C2003   1.289       .  A
O1984      C2005   1.279       .  A
O1985     Zr1995   2.379       .  S
O1985      C2004   1.275       .  A
O1986     Zr1994   2.457       .  S
O1986      C2005   1.284       .  A
O1987      C2004   1.276       .  A
O1988     Zr1996   2.522       .  S
O1988      C2003   1.301       .  A
O1989     Zr1994   2.427       .  S
O1989     Zr1996   2.372       .  S
O1990     Zr1995   2.381       .  S
O1990     Zr1996   2.353       .  S
O1990      H2025   0.965       .  S
O1991     Zr1994   2.439       .  S
O1991     Zr2011   2.345       .  S
O1991      H2028   0.962       .  S
O1992     Zr1995   2.371       .  S
O1992     Zr2011   2.356       .  S
Zr1993     O2018   2.439       .  S
Zr1993     O2012   2.483       .  S
Zr1993     O2020   2.416       .  S
Zr1993     O2008   2.411       .  S
Zr1993     O1999   2.423       .  S
Zr1993     O2000   2.426       .  S
Zr1993     O2001   2.373       .  S
Zr1993     O2002   2.374       .  S
Zr1994     O2013   2.438       .  S
Zr1994     O2006   2.434       .  S
Zr1994     O2007   2.541       .  S
Zr1994     O2000   2.391       .  S
Zr1994     O2001   2.385       .  S
Zr1995     O1997   2.435       .  S
Zr1995     O2019   2.436       .  S
Zr1995     O2021   2.394       .  S
Zr1995     O1999   2.378       .  S
Zr1995     O2002   2.363       .  S
Zr1996     O2022   2.436       .  S
Zr1996     O2023   2.434       .  S
Zr1996     O1998   2.435       .  S
Zr1996     O1999   2.420       .  S
Zr1996     O2000   2.449       .  S
O1997      H2034   0.990       .  S
O1998      H2029   0.990       .  S
O1998      H2043   0.990       .  S
O2000      H2026   0.966       .  S
O2001     Zr2011   2.391       .  S
O2002     Zr2011   2.370       .  S
O2002      H2027   0.965       .  S
C2003      C2122   1.528       .  S
C2004      C2140   1.433       .  S
C2005      C2120   1.440       .  S
O2006      H2042   0.990       .  S
O2007      C2009   1.305       .  A
O2008      C2009   1.280       .  A
C2009      C2174   1.524       .  S
O2010     Zr2011   2.442       .  S
O2010      H2039   0.990       .  S
Zr2011     O2014   2.436       .  S
Zr2011     O2015   2.438       .  S
Zr2011     O2016   2.366       .  S
O2012      C2017   1.290       .  A
O2013      H2030   0.990       .  S
O2013      H2045   0.990       .  S
O2014      H2031   0.990       .  S
O2015      H2035   0.990       .  S
O2015      H2044   0.990       .  S
O2016      C2017   1.266       .  A
C2017      C2197   1.475       .  S
O2018      H2037   0.990       .  S
O2018      H2041   0.990       .  S
O2019      H2033   0.990       .  S
O2019      H2040   0.990       .  S
O2020      C2024   1.281       .  A
O2021      C2024   1.274       .  A
O2022      H2032   0.990       .  S
O2023      H2036   0.990       .  S
C2024      C2118   1.408       .  S
Zr2047     O4480   2.444   1_455  S
Zr2047     O2049   2.454   1_455  S
Zr2047     O2053   2.428       .  S
Zr2047     O4482   2.440   1_455  S
Zr2047     O2055   2.399       .  S
Zr2047     O2056   2.394       .  S
Zr2047     O2057   2.409       .  S
Zr2047     O2058   2.399       .  S
O2048     Zr4479   2.444       .  S
O2048      H2104   0.985       .  S
O2048      H2112   0.990       .  S
O2049      C2069   1.291       .  A
O2050     Zr4479   2.440       .  S
O2050      C2071   1.283       .  A
O2051     Zr2061   2.400       .  S
O2051      C2070   1.271       .  A
O2052     Zr4492   2.434       .  S
O2052      C2071   1.281       .  A
O2053      C2070   1.277       .  A
O2054     Zr2062   2.500       .  S
O2054      C2069   1.297   1_455  A
O2055     Zr2060   2.411       .  S
O2055     Zr2062   2.370       .  S
O2056     Zr2061   2.386       .  S
O2056     Zr2062   2.344       .  S
O2056      H2091   0.964       .  S
O2057     Zr2060   2.426       .  S
O2057     Zr2077   2.352       .  S
O2057      H2094   0.962       .  S
O2058     Zr2061   2.377       .  S
O2058     Zr2077   2.370       .  S
Zr2059     O2084   2.442       .  S
Zr2059     O2078   2.470       .  S
Zr2059     O2086   2.408       .  S
Zr2059     O2074   2.396       .  S
Zr2059     O2065   2.413       .  S
Zr2059     O2066   2.416       .  S
Zr2059     O2067   2.372       .  S
Zr2059     O2068   2.374       .  S
Zr2060     O2079   2.438       .  S
Zr2060     O2072   2.434       .  S
Zr2060     O2073   2.500       .  S
Zr2060     O4484   2.434   1_455  S
Zr2060     O2066   2.386       .  S
Zr2060     O2067   2.386       .  S
Zr2061     O2063   2.438       .  S
Zr2061     O2085   2.440       .  S
Zr2061     O2087   2.402       .  S
Zr2061     O2065   2.387       .  S
Zr2061     O2068   2.361       .  S
Zr2062     O2088   2.435       .  S
Zr2062     O2089   2.435       .  S
Zr2062     O2064   2.435       .  S
Zr2062     O2065   2.415       .  S
Zr2062     O2066   2.426       .  S
O2063      H2100   0.990       .  S
O2064      H2095   0.990       .  S
O2064      H2109   0.990       .  S
O2066      H2092   0.966       .  S
O2067     Zr2077   2.388       .  S
O2068     Zr2077   2.375       .  S
O2068      H2093   0.965       .  S
C2069      C4597   1.511       .  S
C2070      C2185   1.452       .  S
C2071      C2114   1.429       .  S
O2072      H2108   0.990   1_455  S
O2073      C2075   1.296       .  A
O2074      C2075   1.279       .  A
C2075      C2153   1.498       .  S
O2076     Zr2077   2.441       .  S
O2076      H2105   0.990       .  S
Zr2077     O2080   2.436       .  S
Zr2077     O2081   2.438       .  S
Zr2077     O2082   2.367       .  S
O2078      C2083   1.287       .  A
O2079      H2096   0.990       .  S
O2079      H2111   0.990       .  S
O2080      H2097   0.990       .  S
O2081      H2101   0.991       .  S
O2081      H2110   0.990       .  S
O2082      C2083   1.266       .  A
C2083      C2131   1.468       .  S
O2084      H2103   0.990       .  S
O2084      H2107   0.990       .  S
O2085      H2099   0.990       .  S
O2085      H2106   0.990       .  S
O2086      C2090   1.279       .  A
O2087      C2090   1.276       .  A
O2088      H2098   0.990       .  S
O2089      H2102   0.990       .  S
C2090      C2115   1.409       .  S
C2113      C2114   1.204       .  T
C2115      C2116   1.191       .  T
C2117      C2118   1.190       .  T
C2119      C2120   1.210       .  T
C2121      C2122   1.372       .  D
C2121      H2123   1.086       .  S
C2122      H2124   1.086       .  S
C2125      C2126   1.342       .  D
C2125      H2127   1.086       .  S
C2126      H2128   1.081       .  S
C2129      C2130   1.208       .  T
C2131      C2132   1.356       .  D
C2131      H2133   1.086       .  S
C2132      H2134   1.087       .  S
C2135      C2136   1.370       .  D
C2135      H2137   1.085       .  S
C2136      H2138   1.087       .  S
C2139      C2140   1.341       .  D
C2139      H2141   1.083       .  S
C2140      H2142   1.088       .  S
C2143      C4303   1.498       .  S
C2143      C2144   1.356       .  D
C2143      H4577   1.086       .  S
C2144      H2146   1.087       .  S
H2145      C4575   1.086       .  S
C2147      C2148   1.214       .  T
C2149      C2150   1.202       .  T
C2151      C2152   1.211       .  T
C2153      C2154   1.358       .  D
C2153      H2155   1.086       .  S
C2154      H2156   1.088       .  S
C2157      C2158   1.351       .  D
C2157      H2159   1.087       .  S
C2158      H2160   1.083       .  S
C2161      C2162   1.340       .  D
C2161      H2163   1.083       .  S
C2162      H2164   1.087       .  S
C2165      C4501   1.511       .  S
C2165      C2166   1.360       .  D
C2165      H4599   1.086       .  S
C2166      H2168   1.087       .  S
H2167      C4597   1.086       .  S
C2169      C2170   1.356       .  D
C2169      H2171   1.087       .  S
C2170      H2172   1.086       .  S
C2173      C2174   1.371       .  D
C2173      H2175   1.087       .  S
C2174      H2176   1.085       .  S
C2177      C2178   1.223       .  T
C2179      C2180   1.209       .  T
C2181      C2182   1.370       .  D
C2181      H2183   1.086       .  S
C2182      H2184   1.086       .  S
C2185      C2186   1.339       .  D
C2185      H2187   1.085       .  S
C2186      H2188   1.080       .  S
C2189      C2190   1.206       .  T
C2191      C2192   1.208       .  T
C2193      C2194   1.362       .  D
C2193      H2195   1.085       .  S
C2194      H2196   1.087       .  S
C2197      C2198   1.358       .  D
C2197      H2199   1.086       .  S
C2198      H2200   1.087       .  S
C2201      C2202   1.352       .  D
C2201      H2203   1.086       .  S
C2202      H2204   1.087       .  S
C2205      C2206   1.356       .  D
C2205      H2207   1.088       .  S
C2206      H2208   1.086       .  S
C2209      C2210   1.208       .  T
C2211      C2212   1.187       .  T
C2213      C2214   1.356       .  D
C2213      H4647   1.086       .  S
C2214      H2216   1.087   1_455  S
H2215      C4645   1.086       .  S
C2217      C2218   1.367       .  D
C2217      H2219   1.087       .  S
C2218      C3664   1.513   1_455  S
C2218      H4652   1.085       .  S
H2220      C4650   1.085       .  S
C2221      C2222   1.349       .  D
C2221      H2223   1.087       .  S
C2222      H2224   1.087       .  S
C2225      C2226   1.351       .  D
C2225      H2227   1.087       .  S
C2226      H2228   1.086       .  S
C2229      C2230   1.202       .  T
C2231      C2232   1.362       .  D
C2231      H2233   1.086       .  S
C2232      H2234   1.086       .  S
C2235      C2236   1.346       .  D
C2235      H2237   1.083       .  S
C2236      H2238   1.089       .  S
C2239      C2240   1.212       .  T
C2241      C2242   1.199       .  T
C2243      C2244   1.207       .  T
C2245      C2246   1.345       .  D
C2245      H2247   1.088       .  S
C2246      H2248   1.088       .  S
C2249      C2250   1.362       .  D
C2249      H2251   1.086       .  S
C2250      H2252   1.087       .  S
C2253      C2254   1.364       .  D
C2253      H2255   1.086       .  S
C2254      H4688   1.087   1_455  S
H2256      C4686   1.087       .  S
C2257      C2258   1.371       .  D
C2257      H2259   1.087       .  S
C2258      C3268   1.520   1_455  S
C2258      H4692   1.085   1_455  S
H2260      C4690   1.085       .  S
C2261      C2262   1.337       .  D
C2261      H2263   1.086       .  S
C2262      H2264   1.086       .  S
C2265      C3181   1.483       .  S
C2265      C2266   1.352       .  D
C2265      H2267   1.086       .  S
C2266      H2268   1.087       .  S
C2269      C2270   1.206       .  T
C2271      C2272   1.189       .  T
C2273      C2274   1.339       .  D
C2273      H2275   1.084       .  S
C2274      H2276   1.088       .  S
C2277      C2278   1.361       .  D
C2277      H2279   1.087       .  S
C2278      H2280   1.086       .  S
C2281      C2282   1.360       .  D
C2281      H2283   1.086       .  S
C2282      H2284   1.086       .  S
C2285      C2286   1.375       .  D
C2285      H2287   1.085       .  S
C2286      H2288   1.087       .  S
C2289      C2290   1.352       .  D
C2289      H2291   1.085       .  S
C2290      H2292   1.087       .  S
C2293      C2294   1.363   1_556  D
C2293      H2295   1.085       .  S
C2294      H2296   1.088       .  S
C2297      C2298   1.184       .  T
C2299      C2300   1.214       .  T
C2301      C2302   1.210       .  T
C2303      C2304   1.187       .  T
C2305      C2306   1.338       .  D
C2305      H2307   1.087       .  S
C2306      H2308   1.083       .  S
C2309      C2310   1.351       .  D
C2309      H2311   1.086       .  S
C2310      H2312   1.087       .  S
C2313      C2314   1.354       .  D
C2313      H2315   1.086       .  S
C2314      H2316   1.086       .  S
C2317      C2318   1.361       .  D
C2317      H2319   1.087       .  S
C2318      H2320   1.086       .  S
C2321      C2322   1.192       .  T
C2323      C2324   1.207       .  T
C2325      C2326   1.344       .  D
C2325      H2327   1.084       .  S
C2326      H2328   1.086       .  S
C2329      C2330   1.371       .  D
C2329      H2331   1.086       .  S
C2330      H2332   1.086       .  S
C2333      C2334   1.358       .  D
C2333      H2335   1.087       .  S
C2334      H2336   1.086       .  S
C2337      C2338   1.356       .  D
C2337      H2339   1.085       .  S
C2338      H2340   1.088       .  S
C2341      C2342   1.358       .  D
C2341      H2343   1.087       .  S
C2342      H2344   1.086       .  S
C2345      C2346   1.213       .  T
C2347      C2348   1.355       .  D
C2347      H2349   1.087       .  S
C2348      H2350   1.086       .  S
C2351      C4784   1.359       .  D
C2351      H2353   1.088       .  S
C2352      C4783   1.359   1_455  D
C2352      H2354   1.085       .  S
C2355      C2356   1.348       .  D
C2355      H2357   1.087       .  S
C2356      H2358   1.087       .  S
C2359      C2360   1.199       .  T
C2361      C2362   1.364       .  D
C2361      H2363   1.087       .  S
C2362      H2364   1.086       .  S
C2365      C2366   1.350       .  D
C2365      H2367   1.085       .  S
C2366      H2368   1.086       .  S
C2369      C2370   1.353   1_554  D
C2369      H2371   1.087       .  S
C2370      H2372   1.086       .  S
C2373      C2374   1.348       .  D
C2373      H2375   1.087       .  S
C2374      H2376   1.087       .  S
C2377      C2378   1.211       .  T
C2379      C2380   1.205       .  T
C2381      C2382   1.343       .  D
C2381      H2383   1.087       .  S
C2382      H2384   1.088       .  S
C2385      C2386   1.368       .  D
C2385      H2387   1.086       .  S
C2386      C3049   1.524       .  S
C2386      H2388   1.086       .  S
C2389      C2390   1.364       .  D
C2389      H2391   1.085       .  S
C2390      H2392   1.087       .  S
C2393      C2394   1.355       .  D
C2393      H2395   1.087       .  S
C2394      H2396   1.086       .  S
C2397      C2398   1.356       .  D
C2397      H2399   1.086       .  S
C2398      H2400   1.087       .  S
C2401      C2402   1.352       .  D
C2401      H2403   1.086       .  S
C2402      H2404   1.088       .  S
C2405      C2406   1.346       .  D
C2405      H2407   1.088       .  S
C2406      H2408   1.088       .  S
C2409      C2410   1.352       .  D
C2409      H2411   1.087       .  S
C2410      H2412   1.086       .  S
C2413      C2414   1.358       .  D
C2413      H2415   1.087       .  S
C2414      H4848   1.086       .  S
H2416      C4846   1.086       .  S
C2417      C4850   1.369   1_556  D
C2417      H2419   1.085       .  S
C2418      C4849   1.369   1_454  D
C2418      H2420   1.087       .  S
C2421      C2422   1.183       .  T
C2423      C2424   1.209       .  T
C2425      C2426   1.350       .  D
C2425      H2427   1.087       .  S
C2426      H2428   1.087       .  S
C2429      C2430   1.364   1_554  D
C2429      H2431   1.086       .  S
C2430      H2432   1.086       .  S
Zr2433     O2434   2.439       .  S
Zr2433     O2435   2.458       .  S
Zr2433     O2436   2.432       .  S
Zr2433     O2439   2.429       .  S
Zr2433     O2441   2.370       .  S
Zr2433     O2442   2.409       .  S
Zr2433     O2443   2.397       .  S
Zr2433     O2444   2.389       .  S
O2434      H2490   0.988       .  S
O2434      H2498   0.989       .  S
O2435      C2455   1.289       .  A
O2436      C2457   1.281       .  A
O2437     Zr2447   2.473       .  S
O2437      C2456   1.290       .  A
O2438     Zr2446   2.365       .  S
O2438      C2457   1.273       .  A
O2439      C2456   1.281       .  A
O2440     Zr2448   2.494       .  S
O2440      C2455   1.295   1_556  A
O2441     Zr2446   2.386       .  S
O2441     Zr2448   2.361   1_554  S
O2442     Zr2447   2.438       .  S
O2442     Zr2448   2.373   1_554  S
O2442      H2477   0.966   1_554  S
O2443     Zr2446   2.390       .  S
O2443     Zr2463   2.363       .  S
O2443      H2480   0.964       .  S
O2444     Zr2447   2.384       .  S
O2444     Zr2463   2.338       .  S
Zr2445     O2464   2.478   1_655  S
Zr2445     O2472   2.386       .  S
Zr2445     O2451   2.421       .  S
Zr2445     O2452   2.410       .  S
Zr2445     O2453   2.364       .  S
Zr2445     O2454   2.370       .  S
Zr2446     O2465   2.438       .  S
Zr2446     O2458   2.435       .  S
Zr2446     O2452   2.382       .  S
Zr2446     O2453   2.380       .  S
Zr2447     O2449   2.435       .  S
Zr2447     O2471   2.438   1_554  S
Zr2447     O2473   2.541       .  S
Zr2447     O2451   2.384       .  S
Zr2447     O2454   2.386       .  S
Zr2448     O2474   2.434       .  S
Zr2448     O2475   2.434       .  S
Zr2448     O2450   2.436       .  S
Zr2448     O2451   2.438   1_556  S
Zr2448     O2452   2.412   1_556  S
O2449      H2486   0.990       .  S
O2450      H2481   0.990       .  S
O2450      H2495   0.990   1_556  S
O2452      H2478   0.966       .  S
O2453     Zr2463   2.372       .  S
O2454     Zr2463   2.393       .  S
O2454      H2479   0.966       .  S
C2455      C4862   1.518   1_554  S
C2456      C4855   1.438       .  S
C2457      C4857   1.440       .  S
O2458      H2494   0.990       .  S
O2459      C2461   1.273       .  A
O2460      C2461   1.275       .  A
C2461      C4853   1.395       .  S
O2462     Zr2463   2.439       .  S
O2462      H2491   0.990       .  S
Zr2463     O2466   2.438       .  S
Zr2463     O2467   2.439       .  S
Zr2463     O2468   2.355       .  S
O2464      C2469   1.291   1_455  A
O2465      H2482   0.990       .  S
O2465      H2497   0.990       .  S
O2466      H2483   0.990       .  S
O2467      H2487   0.990       .  S
O2467      H2496   0.990       .  S
O2468      C2469   1.271       .  A
C2469      C4846   1.478   1_655  S
O2470      H2493   0.990       .  S
O2471      H2485   0.990       .  S
O2471      H2492   0.989       .  S
O2472      C2476   1.275       .  A
O2473      C2476   1.304       .  A
O2474      H2484   0.990       .  S
O2475      H2488   0.990       .  S
C2476      C4849   1.513   1_554  S
Zr2499     O2500   2.435       .  S
Zr2499     O2501   2.432       .  S
Zr2499     O2502   2.414       .  S
Zr2499     O2505   2.435       .  S
Zr2499     O2507   2.374       .  S
Zr2499     O2508   2.397       .  S
Zr2499     O2509   2.401       .  S
Zr2499     O2510   2.377       .  S
O2500      H2556   0.990       .  S
O2500      H2564   0.990       .  S
O2501      C2521   1.286       .  A
O2502      C2523   1.275       .  A
O2503     Zr2513   2.467       .  S
O2503      C2522   1.289       .  A
O2504     Zr2512   2.362       .  S
O2504      C2523   1.271       .  A
O2505      C2522   1.282       .  A
O2506     Zr2514   2.456       .  S
O2506      C2521   1.288       .  A
O2507     Zr2512   2.374       .  S
O2507     Zr2514   2.372       .  S
O2508     Zr2513   2.417       .  S
O2508     Zr2514   2.383       .  S
O2508      H2543   0.966       .  S
O2509     Zr2512   2.404       .  S
O2509     Zr2529   2.374       .  S
O2509      H2546   0.964       .  S
O2510     Zr2513   2.370       .  S
O2510     Zr2529   2.341       .  S
Zr2511     O2536   2.447       .  S
Zr2511     O2530   2.456       .  S
Zr2511     O2538   2.383       .  S
Zr2511     O2526   2.414       .  S
Zr2511     O2517   2.414       .  S
Zr2511     O2518   2.410       .  S
Zr2511     O2519   2.366       .  S
Zr2511     O2520   2.390       .  S
Zr2512     O2531   2.446       .  S
Zr2512     O2524   2.434       .  S
Zr2512     O2525   2.372       .  S
Zr2512     O2518   2.385       .  S
Zr2512     O2519   2.370       .  S
Zr2513     O2515   2.437       .  S
Zr2513     O2537   2.438       .  S
Zr2513     O2539   2.483       .  S
Zr2513     O2517   2.391       .  S
Zr2513     O2520   2.399       .  S
Zr2514     O2540   2.434       .  S
Zr2514     O2541   2.436       .  S
Zr2514     O2516   2.438       .  S
Zr2514     O2517   2.417       .  S
Zr2514     O2518   2.406       .  S
O2515      H2552   0.990       .  S
O2516      H2547   0.990       .  S
O2516      H2561   0.990       .  S
O2518      H2544   0.966       .  S
O2519     Zr2529   2.362       .  S
O2520     Zr2529   2.393       .  S
O2520      H2545   0.966       .  S
C2521      C4842   1.490       .  S
C2522      C4856   1.438       .  S
C2523      C4838   1.433       .  S
O2524      H2560   0.990       .  S
O2525      C2527   1.264       .  A
O2526      C2527   1.275       .  A
C2527      C4854   1.399       .  S
O2528     Zr2529   2.437       .  S
O2528      H2557   0.990       .  S
Zr2529     O2532   2.436       .  S
Zr2529     O2533   2.441       .  S
Zr2529     O2534   2.382       .  S
O2530      C2535   1.285       .  A
O2531      H2548   0.990       .  S
O2531      H2563   0.991       .  S
O2532      H2549   0.990       .  S
O2533      H2553   0.990       .  S
O2533      H2562   0.989       .  S
O2534      C2535   1.268       .  A
C2535      C4830   1.466       .  S
O2536      H2555   0.991       .  S
O2536      H2559   0.990       .  S
O2537      H2551   0.990       .  S
O2537      H2558   0.990       .  S
O2538      C2542   1.277       .  A
O2539      C2542   1.292       .  A
O2540      H2550   0.990       .  S
O2541      H2554   0.990       .  S
C2542      C4833   1.484       .  S
Zr2565     O2566   2.442       .  S
Zr2565     O2567   2.458       .  S
Zr2565     O2568   2.418       .  S
Zr2565     O2571   2.364       .  S
Zr2565     O2573   2.366       .  S
Zr2565     O2574   2.377       .  S
Zr2565     O2575   2.405       .  S
Zr2565     O2576   2.417       .  S
O2566      H2622   0.991       .  S
O2566      H2630   0.990       .  S
O2567      C2587   1.288       .  A
O2568      C2589   1.279       .  A
O2569     Zr2579   2.449       .  S
O2569      C2588   1.287       .  A
O2570     Zr2578   2.451       .  S
O2570      C2589   1.283       .  A
O2571      C2588   1.272       .  A
O2572     Zr2580   2.473       .  S
O2572      C2587   1.288       .  A
O2573     Zr2578   2.396       .  S
O2573     Zr2580   2.391       .  S
O2574     Zr2579   2.399       .  S
O2574     Zr2580   2.363       .  S
O2574      H2609   0.966       .  S
O2575     Zr2578   2.406       .  S
O2575     Zr2595   2.401       .  S
O2575      H2612   0.964       .  S
O2576     Zr2579   2.394       .  S
O2576     Zr2595   2.417       .  S
Zr2577     O2602   2.440       .  S
Zr2577     O2596   2.484       .  S
Zr2577     O2604   2.416       .  S
Zr2577     O2592   2.369       .  S
Zr2577     O2583   2.404       .  S
Zr2577     O2584   2.430       .  S
Zr2577     O2585   2.370       .  S
Zr2577     O2586   2.366       .  S
Zr2578     O2597   2.441       .  S
Zr2578     O2590   2.435       .  S
Zr2578     O2591   2.427       .  S
Zr2578     O2584   2.407       .  S
Zr2578     O2585   2.408       .  S
Zr2579     O2581   2.435       .  S
Zr2579     O2603   2.436       .  S
Zr2579     O2605   2.457       .  S
Zr2579     O2583   2.392       .  S
Zr2579     O2586   2.398       .  S
Zr2580     O2606   2.436       .  S
Zr2580     O2607   2.436       .  S
Zr2580     O2582   2.436       .  S
Zr2580     O2583   2.416       .  S
Zr2580     O2584   2.406       .  S
O2581      H2618   0.990       .  S
O2582      H2613   0.990       .  S
O2582      H2627   0.990       .  S
O2584      H2610   0.966       .  S
O2585     Zr2595   2.362       .  S
O2586     Zr2595   2.380       .  S
O2586      H2611   0.966       .  S
C2587      C4822   1.505       .  S
C2588      C4825   1.459       .  S
C2589      C4811   1.432       .  S
O2590      H2626   0.990       .  S
O2591      C2593   1.278       .  A
O2592      C2593   1.270       .  A
C2593      C4814   1.443       .  S
O2594     Zr2595   2.440       .  S
O2594      H2623   0.990       .  S
Zr2595     O2598   2.438       .  S
Zr2595     O2599   2.440       .  S
Zr2595     O2600   2.475       .  S
O2596      C2601   1.294       .  A
O2597      H2614   0.990       .  S
O2597      H2629   0.990       .  S
O2598      H2615   0.990       .  S
O2599      H2619   0.990       .  S
O2599      H2628   0.989       .  S
O2600      C2601   1.290       .  A
C2601      C4817   1.522       .  S
O2602      H2621   0.990       .  S
O2602      H2625   0.990       .  S
O2603      H2617   0.990       .  S
O2603      H2624   0.990       .  S
O2604      C2608   1.280       .  A
O2605      C2608   1.287       .  A
O2606      H2616   0.990       .  S
O2607      H2620   0.990       .  S
C2608      C4810   1.443       .  S
Zr2631     O2632   2.444       .  S
Zr2631     O2637   2.386       .  S
Zr2631     O2640   2.383       .  S
Zr2631     O2641   2.410       .  S
Zr2631     O2642   2.422       .  S
O2632      H2688   0.990       .  S
O2632      H2696   0.991       .  S
O2633      C2653   1.289       .  A
O2634      C2655   1.279       .  A
O2635     Zr2645   2.431       .  S
O2635      C2654   1.282       .  A
O2636     Zr2644   2.427       .  S
O2636      C2655   1.280       .  A
O2637      C2654   1.274       .  A
O2638     Zr2646   2.459       .  S
O2638      C2653   1.286       .  A
O2639     Zr2644   2.396       .  S
O2639     Zr2646   2.386       .  S
O2640     Zr2645   2.413       .  S
O2640      H2675   0.966       .  S
O2641     Zr2661   2.397       .  S
O2641      H2678   0.964       .  S
O2642     Zr2645   2.397       .  S
O2642     Zr2661   2.413       .  S
Zr2643     O2662   2.443       .  S
Zr2643     O2670   2.413       .  S
Zr2643     O2649   2.400       .  S
Zr2643     O2651   2.364   1_554  S
Zr2643     O2652   2.365   1_554  S
Zr2644     O2663   2.437       .  S
Zr2644     O2656   2.436       .  S
Zr2644     O2657   2.416       .  S
Zr2644     O2650   2.410       .  S
Zr2645     O2647   2.435       .  S
Zr2645     O2669   2.436   1_556  S
Zr2645     O2671   2.463   1_556  S
Zr2645     O2649   2.388   1_556  S
Zr2645     O2652   2.384       .  S
Zr2646     O2672   2.436   1_556  S
Zr2646     O2673   2.435   1_556  S
Zr2646     O2648   2.436       .  S
Zr2646     O2650   2.404       .  S
O2647      H2684   0.990       .  S
O2648      H2679   0.990       .  S
O2648      H2693   0.990       .  S
O2650      H2676   0.966   1_556  S
O2651     Zr2661   2.354       .  S
O2652     Zr2661   2.378       .  S
O2652      H2677   0.965       .  S
C2653      C4793   1.504       .  S
C2654      C4798   1.456       .  S
C2655      C4792   1.423       .  S
O2656      H2692   0.990       .  S
O2657      C2659   1.277   1_556  A
O2658      C2659   1.266   1_455  A
C2659      C4805   1.446       .  S
O2660     Zr2661   2.440       .  S
O2660      H2689   0.990       .  S
Zr2661     O2664   2.438       .  S
Zr2661     O2665   2.440       .  S
Zr2661     O2666   2.466       .  S
O2662      C2667   1.287   1_554  A
O2663      H2680   0.990       .  S
O2663      H2695   0.990       .  S
O2664      H2681   0.990       .  S
O2665      H2685   0.990       .  S
O2665      H2694   0.989       .  S
O2666      C2667   1.290       .  A
C2667      C4801   1.499   1_556  S
O2668      H2687   0.990       .  S
O2668      H2691   0.990       .  S
O2669      H2683   0.990   1_554  S
O2669      H2690   0.990   1_554  S
O2670      C2674   1.281       .  A
O2671      C2674   1.289       .  A
O2672      H2682   0.990       .  S
O2673      H2686   0.990       .  S
C2674      C4809   1.443       .  S
Zr2697     O2698   2.441       .  S
Zr2697     O2699   2.440       .  S
Zr2697     O2700   2.404       .  S
Zr2697     O2703   2.376       .  S
Zr2697     O2705   2.371       .  S
Zr2697     O2706   2.376       .  S
Zr2697     O2707   2.401       .  S
Zr2697     O2708   2.409       .  S
O2698      H2754   0.991       .  S
O2698      H2762   0.990       .  S
O2699      C2719   1.285       .  A
O2700      C2721   1.277       .  A
O2701     Zr2711   2.450       .  S
O2701      C2720   1.289       .  A
O2702     Zr2710   2.440       .  S
O2702      C2721   1.281       .  A
O2703      C2720   1.275       .  A
O2704     Zr2712   2.470       .  S
O2704      C2719   1.288       .  A
O2705     Zr2710   2.394       .  S
O2705     Zr2712   2.383       .  S
O2706     Zr2711   2.405       .  S
O2706     Zr2712   2.364       .  S
O2706      H2741   0.966       .  S
O2707     Zr2710   2.402       .  S
O2707     Zr2727   2.391       .  S
O2707      H2744   0.964       .  S
O2708     Zr2711   2.398       .  S
O2708     Zr2727   2.410       .  S
Zr2709     O2734   2.441       .  S
Zr2709     O2728   2.463       .  S
Zr2709     O2736   2.395       .  S
Zr2709     O2724   2.337       .  S
Zr2709     O2715   2.392       .  S
Zr2709     O2716   2.412       .  S
Zr2709     O2717   2.364       .  S
Zr2709     O2718   2.363       .  S
Zr2710     O2729   2.440       .  S
Zr2710     O2722   2.435       .  S
Zr2710     O2723   2.435       .  S
Zr2710     O2716   2.398       .  S
Zr2710     O2717   2.385       .  S
Zr2711     O2713   2.435       .  S
Zr2711     O2735   2.434       .  S
Zr2711     O2737   2.483       .  S
Zr2711     O2715   2.392       .  S
Zr2711     O2718   2.387       .  S
Zr2712     O2738   2.436       .  S
Zr2712     O2739   2.436       .  S
Zr2712     O2714   2.436       .  S
Zr2712     O2715   2.419       .  S
Zr2712     O2716   2.410       .  S
O2713      H2750   0.990       .  S
O2714      H2745   0.990   1_655  S
O2714      H2759   0.990   1_655  S
O2716      H2742   0.966       .  S
O2717     Zr2727   2.358       .  S
O2718     Zr2727   2.379       .  S
O2718      H2743   0.965       .  S
C2719      C4783   1.496       .  S
C2720      C4779   1.460       .  S
C2721      C4791   1.422       .  S
O2722      H2758   0.990       .  S
O2723      C2725   1.283       .  A
O2724      C2725   1.270       .  A
C2725      C4787   1.444       .  S
O2726     Zr2727   2.439       .  S
O2726      H2755   0.990       .  S
Zr2727     O2730   2.438       .  S
Zr2727     O2731   2.439       .  S
Zr2727     O2732   2.453       .  S
O2728      C2733   1.290       .  A
O2729      H2746   0.990       .  S
O2729      H2761   0.990       .  S
O2730      H2747   0.990       .  S
O2731      H2751   0.990       .  S
O2731      H2760   0.990       .  S
O2732      C2733   1.287       .  A
C2733      C4773   1.502       .  S
O2734      H2753   0.990       .  S
O2734      H2757   0.990       .  S
O2735      H2749   0.990       .  S
O2735      H2756   0.990       .  S
O2736      C2740   1.276       .  A
O2737      C2740   1.293       .  A
O2738      H2748   0.990       .  S
O2739      H2752   0.990       .  S
C2740      C4778   1.445       .  S
Zr2763     O2764   2.441       .  S
Zr2763     O2765   2.436       .  S
Zr2763     O2766   2.411       .  S
Zr2763     O2769   2.376       .  S
Zr2763     O2771   2.371       .  S
Zr2763     O2772   2.377       .  S
Zr2763     O2773   2.400       .  S
Zr2763     O2774   2.413       .  S
O2764      H2820   0.991       .  S
O2764      H2828   0.990       .  S
O2765      C2785   1.285       .  A
O2766      C2787   1.278       .  A
O2767     Zr2777   2.456       .  S
O2767      C2786   1.290       .  A
O2768     Zr2776   2.451       .  S
O2768      C2787   1.285       .  A
O2769      C2786   1.274       .  A
O2770     Zr2778   2.471       .  S
O2770      C2785   1.289       .  A
O2771     Zr2776   2.389       .  S
O2771     Zr2778   2.387       .  S
O2772     Zr2777   2.391       .  S
O2772     Zr2778   2.362       .  S
O2772      H2807   0.966       .  S
O2773     Zr2776   2.406       .  S
O2773     Zr2793   2.406       .  S
O2773      H2810   0.964       .  S
O2774     Zr2777   2.391       .  S
O2774     Zr2793   2.416       .  S
Zr2775     O2800   2.440       .  S
Zr2775     O2794   2.482       .  S
Zr2775     O2802   2.435       .  S
Zr2775     O2790   2.392       .  S
Zr2775     O2781   2.411       .  S
Zr2775     O2782   2.441       .  S
Zr2775     O2783   2.372       .  S
Zr2775     O2784   2.365       .  S
Zr2776     O2795   2.435       .  S
Zr2776     O2788   2.437       .  S
Zr2776     O2789   2.417       .  S
Zr2776     O2782   2.430       .  S
Zr2776     O2783   2.419       .  S
Zr2777     O2779   2.434       .  S
Zr2777     O2801   2.436       .  S
Zr2777     O2803   2.454       .  S
Zr2777     O2781   2.386       .  S
Zr2777     O2784   2.397       .  S
Zr2778     O2804   2.436       .  S
Zr2778     O2805   2.436       .  S
Zr2778     O2780   2.437       .  S
Zr2778     O2781   2.416       .  S
Zr2778     O2782   2.406       .  S
O2779      H2816   0.990       .  S
O2780      H2811   0.990       .  S
O2780      H2825   0.990       .  S
O2782      H2808   0.966       .  S
O2783     Zr2793   2.354       .  S
O2784     Zr2793   2.383       .  S
O2784      H2809   0.966       .  S
C2785      C4770   1.494       .  S
C2786      C4765   1.462       .  S
C2787      C4812   1.431       .  S
O2788      H2824   0.990       .  S
O2789      C2791   1.269       .  A
O2790      C2791   1.263       .  A
C2791      C4757   1.455       .  S
O2792     Zr2793   2.439       .  S
O2792      H2821   0.990       .  S
Zr2793     O2796   2.437       .  S
Zr2793     O2797   2.439       .  S
Zr2793     O2798   2.482       .  S
O2794      C2799   1.297       .  A
O2795      H2812   0.990       .  S
O2795      H2827   0.990       .  S
O2796      H2813   0.990       .  S
O2797      H2817   0.990       .  S
O2797      H2826   0.989       .  S
O2798      C2799   1.292       .  A
C2799      C4761   1.524       .  S
O2800      H2819   0.990       .  S
O2800      H2823   0.990       .  S
O2801      H2815   0.990       .  S
O2801      H2822   0.990       .  S
O2802      C2806   1.286       .  A
O2803      C2806   1.287       .  A
O2804      H2814   0.990       .  S
O2805      H2818   0.990       .  S
C2806      C4777   1.448       .  S
Zr2829     O2830   2.433       .  S
Zr2829     O2831   2.439       .  S
Zr2829     O2832   2.424       .  S
Zr2829     O2835   2.443       .  S
Zr2829     O2837   2.375       .  S
Zr2829     O2838   2.404       .  S
Zr2829     O2839   2.413       .  S
Zr2829     O2840   2.381       .  S
O2830      H2886   0.991       .  S
O2830      H2894   0.991       .  S
O2831      C2851   1.286       .  A
O2832      C2853   1.275       .  A
O2833     Zr2843   2.458       .  S
O2833      C2852   1.287       .  A
O2834     Zr2842   2.390       .  S
O2834      C2853   1.271       .  A
O2835      C2852   1.284       .  A
O2836     Zr2844   2.476       .  S
O2836      C2851   1.292       .  A
O2837     Zr2842   2.391       .  S
O2837     Zr2844   2.358       .  S
O2838     Zr2843   2.429       .  S
O2838     Zr2844   2.379       .  S
O2838      H2873   0.966       .  S
O2839     Zr2842   2.395       .  S
O2839     Zr2859   2.381       .  S
O2839      H2876   0.965       .  S
O2840     Zr2843   2.379       .  S
O2840     Zr2859   2.343       .  S
Zr2841     O2866   2.441       .  S
Zr2841     O2860   2.457       .  S
Zr2841     O2868   2.396       .  S
Zr2841     O2856   2.410       .  S
Zr2841     O2847   2.415       .  S
Zr2841     O2848   2.411       .  S
Zr2841     O2849   2.366       .  S
Zr2841     O2850   2.383       .  S
Zr2842     O2861   2.441       .  S
Zr2842     O2854   2.435       .  S
Zr2842     O2855   2.399       .  S
Zr2842     O2848   2.393       .  S
Zr2842     O2849   2.363       .  S
Zr2843     O2845   2.437       .  S
Zr2843     O2867   2.438       .  S
Zr2843     O2869   2.514       .  S
Zr2843     O2847   2.385       .  S
Zr2843     O2850   2.389       .  S
Zr2844     O2870   2.435       .  S
Zr2844     O2871   2.434       .  S
Zr2844     O2846   2.436       .  S
Zr2844     O2847   2.425       .  S
Zr2844     O2848   2.415       .  S
O2845      H2882   0.990       .  S
O2846      H2877   0.990       .  S
O2846      H2891   0.990       .  S
O2848      H2874   0.966       .  S
O2849     Zr2859   2.370       .  S
O2850     Zr2859   2.403       .  S
O2850      H2875   0.965       .  S
C2851      C4774   1.502       .  S
C2852      C4756   1.435       .  S
C2853      C4758   1.450       .  S
O2854      H2890   0.990       .  S
O2855      C2857   1.275       .  A
O2856      C2857   1.279       .  A
C2857      C4754   1.411       .  S
O2858     Zr2859   2.442       .  S
O2858      H2887   0.990       .  S
Zr2859     O2862   2.437       .  S
Zr2859     O2863   2.443       .  S
Zr2859     O2864   2.384       .  S
O2860      C2865   1.285       .  A
O2861      H2878   0.990       .  S
O2861      H2893   0.988       .  S
O2862      H2879   0.990       .  S
O2863      H2883   0.990       .  S
O2863      H2892   0.989       .  S
O2864      C2865   1.269       .  A
C2865      C4745   1.469       .  S
O2866      H2885   0.990       .  S
O2866      H2889   0.990       .  S
O2867      H2881   0.990       .  S
O2867      H2888   0.990       .  S
O2868      C2872   1.279       .  A
O2869      C2872   1.299       .  A
O2870      H2880   0.990       .  S
O2871      H2884   0.990       .  S
C2872      C4750   1.505       .  S
Zr2895     O2896   2.427       .  S
Zr2895     O2897   2.445       .  S
Zr2895     O2898   2.451       .  S
Zr2895     O2901   2.431       .  S
Zr2895     O2903   2.398       .  S
Zr2895     O2904   2.388       .  S
Zr2895     O2905   2.411       .  S
Zr2895     O2906   2.399       .  S
O2896      H2952   0.989       .  S
O2896      H2960   0.989       .  S
O2897      C2917   1.286       .  A
O2898      C2919   1.284       .  A
O2899     Zr2909   2.401       .  S
O2899      C2918   1.272       .  A
O2900     Zr2908   2.454       .  S
O2900      C2919   1.286       .  A
O2901      C2918   1.278       .  A
O2902     Zr2910   2.448       .  S
O2902      C2917   1.285       .  A
O2903     Zr2908   2.415       .  S
O2903     Zr2910   2.388       .  S
O2904     Zr2909   2.370       .  S
O2904     Zr2910   2.362       .  S
O2904      H2939   0.964       .  S
O2905     Zr2908   2.433       .  S
O2905     Zr2925   2.344       .  S
O2905      H2942   0.961       .  S
O2906     Zr2909   2.373       .  S
O2906     Zr2925   2.368       .  S
Zr2907     O2926   2.452       .  S
Zr2907     O2922   2.403       .  S
Zr2907     O2913   2.402       .  S
Zr2907     O2914   2.411       .  S
Zr2907     O2915   2.381       .  S
Zr2907     O2916   2.382       .  S
Zr2908     O2927   2.438       .  S
Zr2908     O2920   2.434       .  S
Zr2908     O2921   2.508       .  S
Zr2908     O2914   2.395       .  S
Zr2908     O2915   2.395       .  S
Zr2909     O2911   2.437       .  S
Zr2909     O2933   2.436       .  S
Zr2909     O2913   2.389       .  S
Zr2909     O2916   2.365       .  S
Zr2910     O2936   2.436       .  S
Zr2910     O2937   2.435       .  S
Zr2910     O2912   2.435       .  S
Zr2910     O2913   2.396       .  S
Zr2910     O2914   2.406       .  S
O2911      H2948   0.990       .  S
O2912      H2943   0.990       .  S
O2912      H2957   0.990       .  S
O2914      H2940   0.966       .  S
O2915     Zr2925   2.385       .  S
O2916     Zr2925   2.374       .  S
O2916      H2941   0.965       .  S
C2917      C4741   1.484       .  S
C2918      C4737   1.454       .  S
C2919      C4733   1.438       .  S
O2920      H2956   0.990       .  S
O2921      C2923   1.298       .  A
O2922      C2923   1.280       .  A
C2923      C4784   1.504       .  S
O2924     Zr2925   2.443       .  S
O2924      H2953   0.990       .  S
Zr2925     O2928   2.438       .  S
Zr2925     O2929   2.437       .  S
Zr2925     O2930   2.372       .  S
O2926      C2931   1.283       .  A
O2927      H2944   0.990       .  S
O2927      H2959   0.990       .  S
O2928      H2945   0.990       .  S
O2929      H2949   0.990       .  S
O2929      H2958   0.990       .  S
O2930      C2931   1.265       .  A
C2931      C4797   1.461       .  S
O2932      H2951   0.990       .  S
O2933      H2947   0.990       .  S
O2933      H2954   0.990       .  S
O2934      C2938   1.283       .  A
O2935      C2938   1.272   1_455  A
O2936      H2946   0.990       .  S
O2937      H2950   0.990       .  S
C2938      C4735   1.404       .  S
Zr2961     O2962   2.440       .  S
Zr2961     O2963   2.456       .  S
Zr2961     O2964   2.427       .  S
Zr2961     O2967   2.424       .  S
Zr2961     O2969   2.371       .  S
Zr2961     O2970   2.404       .  S
Zr2961     O2971   2.403       .  S
Zr2961     O2972   2.395       .  S
O2962      H3018   0.989       .  S
O2962      H3026   0.990       .  S
O2963      C2983   1.290       .  A
O2964      C2985   1.277       .  A
O2965     Zr2975   2.491       .  S
O2965      C2984   1.293       .  A
O2966     Zr2974   2.382       .  S
O2966      C2985   1.275       .  A
O2967      C2984   1.280       .  A
O2968     Zr2976   2.454       .  S
O2968      C2983   1.288   1_556  A
O2969     Zr2974   2.374       .  S
O2969     Zr2976   2.375   1_554  S
O2970     Zr2975   2.426       .  S
O2970     Zr2976   2.382   1_554  S
O2970      H3005   0.966   1_554  S
O2971     Zr2974   2.402       .  S
O2971     Zr2991   2.375       .  S
O2971      H3008   0.964       .  S
O2972     Zr2975   2.379       .  S
O2972     Zr2991   2.349       .  S
Zr2973     O2998   2.446       .  S
Zr2973     O2992   2.448       .  S
Zr2973     O3000   2.384       .  S
Zr2973     O2988   2.411       .  S
Zr2973     O2979   2.412       .  S
Zr2973     O2980   2.411       .  S
Zr2973     O2981   2.374       .  S
Zr2973     O2982   2.397       .  S
Zr2974     O2993   2.445       .  S
Zr2974     O2986   2.434       .  S
Zr2974     O2987   2.375       .  S
Zr2974     O2980   2.392       .  S
Zr2974     O2981   2.370       .  S
Zr2975     O2977   2.437       .  S
Zr2975     O2999   2.438   1_554  S
Zr2975     O3001   2.525       .  S
Zr2975     O2979   2.393       .  S
Zr2975     O2982   2.394       .  S
Zr2976     O3002   2.434       .  S
Zr2976     O3003   2.436       .  S
Zr2976     O2978   2.438       .  S
Zr2976     O2979   2.418   1_556  S
Zr2976     O2980   2.402   1_556  S
O2977      H3014   0.990       .  S
O2978      H3009   0.990       .  S
O2978      H3023   0.990       .  S
O2980      H3006   0.966       .  S
O2981     Zr2991   2.365       .  S
O2982     Zr2991   2.390       .  S
O2982      H3007   0.965       .  S
C2983      C4802   1.497   1_554  S
C2984      C4731   1.447       .  S
C2985      C4813   1.444       .  S
O2986      H3022   0.990       .  S
O2987      C2989   1.265       .  A
O2988      C2989   1.275       .  A
C2989      C4729   1.401       .  S
O2990     Zr2991   2.437       .  S
O2990      H3019   0.990       .  S
Zr2991     O2994   2.436       .  S
Zr2991     O2995   2.441       .  S
Zr2991     O2996   2.392       .  S
O2992      C2997   1.281       .  A
O2993      H3010   0.990       .  S
O2993      H3025   0.991       .  S
O2994      H3011   0.990       .  S
O2995      H3015   0.990       .  S
O2995      H3024   0.989       .  S
O2996      C2997   1.268       .  A
C2997      C4722   1.465       .  S
O2998      H3017   0.991   1_554  S
O2998      H3021   0.990       .  S
O2999      H3013   0.990       .  S
O2999      H3020   0.990       .  S
O3000      C3004   1.277       .  A
O3001      C3004   1.302       .  A
O3002      H3012   0.990       .  S
O3003      H3016   0.990       .  S
C3004      C4725   1.503   1_554  S
Zr3027     O3029   2.457   1_655  S
Zr3027     O3030   2.438       .  S
Zr3027     O3035   2.370       .  S
Zr3027     O3036   2.410       .  S
Zr3027     O3037   2.399       .  S
Zr3027     O3038   2.393       .  S
O3028      H3084   0.989       .  S
O3028      H3092   0.989       .  S
O3029      C3049   1.289       .  A
O3030      C3051   1.282       .  A
O3031      C3050   1.294       .  A
O3032     Zr3040   2.366       .  S
O3032      C3051   1.274       .  A
O3033      C3050   1.282       .  A
O3034     Zr3042   2.505       .  S
O3034      C3049   1.298   1_655  A
O3035     Zr3040   2.385       .  S
O3035     Zr3042   2.358       .  S
O3036     Zr3041   2.440       .  S
O3036     Zr3042   2.375       .  S
O3036      H3071   0.966       .  S
O3037     Zr3040   2.391       .  S
O3037     Zr3057   2.376       .  S
O3037      H3074   0.965       .  S
O3038     Zr3041   2.386       .  S
O3038     Zr3057   2.348       .  S
Zr3039     O3064   2.443       .  S
Zr3039     O3058   2.478       .  S
Zr3039     O3066   2.392       .  S
Zr3039     O3054   2.392       .  S
Zr3039     O3045   2.423       .  S
Zr3039     O3046   2.415       .  S
Zr3039     O3047   2.363       .  S
Zr3039     O3048   2.377       .  S
Zr3040     O3059   2.438       .  S
Zr3040     O3052   2.435       .  S
Zr3040     O3053   2.386       .  S
Zr3040     O3046   2.382       .  S
Zr3040     O3047   2.376       .  S
Zr3041     O3043   2.435       .  S
Zr3041     O3065   2.438       .  S
Zr3041     O3067   2.563       .  S
Zr3041     O3045   2.384       .  S
Zr3041     O3048   2.379       .  S
Zr3042     O3068   2.434       .  S
Zr3042     O3069   2.435       .  S
Zr3042     O3044   2.437       .  S
Zr3042     O3045   2.442       .  S
Zr3042     O3046   2.415       .  S
O3043      H3080   0.990       .  S
O3044      H3075   0.990       .  S
O3044      H3089   0.990       .  S
O3046      H3072   0.966       .  S
O3047     Zr3057   2.374       .  S
O3048     Zr3057   2.402       .  S
O3048      H3073   0.965       .  S
C3050      C4732   1.447       .  S
C3051      C4806   1.447       .  S
O3052      H3088   0.990       .  S
O3053      C3055   1.272       .  A
O3054      C3055   1.276       .  A
C3055      C4730   1.396       .  S
O3056     Zr3057   2.441       .  S
O3056      H3085   0.990       .  S
Zr3057     O3060   2.438       .  S
Zr3057     O3061   2.443       .  S
Zr3057     O3062   2.378       .  S
O3058      C3063   1.289       .  A
O3059      H3076   0.990       .  S
O3059      H3091   0.990       .  S
O3060      H3077   0.990       .  S
O3061      H3081   0.990       .  S
O3061      H3090   0.989       .  S
O3062      C3063   1.268       .  A
C3063      C4714   1.478       .  S
O3064      H3083   0.990       .  S
O3064      H3087   0.990       .  S
O3065      H3079   0.990   1_655  S
O3065      H3086   0.989       .  S
O3066      C3070   1.276       .  A
O3067      C3070   1.310       .  A
O3068      H3078   0.990       .  S
O3069      H3082   0.990       .  S
C3070      C4717   1.525       .  S
Zr3093     O3094   2.438       .  S
Zr3093     O3095   2.432       .  S
Zr3093     O3096   2.440       .  S
Zr3093     O3099   2.441       .  S
Zr3093     O3101   2.399       .  S
Zr3093     O3102   2.385       .  S
Zr3093     O3103   2.401       .  S
Zr3093     O3104   2.392       .  S
O3094      H3150   0.989       .  S
O3094      H3158   0.989       .  S
O3095      C3115   1.286       .  A
O3096      C3117   1.284       .  A
O3097     Zr3107   2.382       .  S
O3097      C3116   1.268       .  A
O3098     Zr3106   2.446       .  S
O3098      C3117   1.285       .  A
O3099      C3116   1.282       .  A
O3100     Zr3108   2.501       .  S
O3100      C3115   1.297       .  A
O3101     Zr3106   2.411       .  S
O3101     Zr3108   2.369       .  S
O3102     Zr3107   2.389       .  S
O3102     Zr3108   2.344       .  S
O3102      H3137   0.964       .  S
O3103     Zr3106   2.432       .  S
O3103     Zr3123   2.335       .  S
O3103      H3140   0.962       .  S
O3104     Zr3107   2.378       .  S
O3104     Zr3123   2.367       .  S
Zr3105     O3130   2.441       .  S
Zr3105     O3124   2.474       .  S
Zr3105     O3132   2.407       .  S
Zr3105     O3120   2.402       .  S
Zr3105     O3111   2.417       .  S
Zr3105     O3112   2.418       .  S
Zr3105     O3113   2.371       .  S
Zr3105     O3114   2.380       .  S
Zr3106     O3125   2.438       .  S
Zr3106     O3118   2.434       .  S
Zr3106     O3119   2.521       .  S
Zr3106     O3112   2.384       .  S
Zr3106     O3113   2.389       .  S
Zr3107     O3109   2.436       .  S
Zr3107     O3131   2.440       .  S
Zr3107     O3133   2.391       .  S
Zr3107     O3111   2.386       .  S
Zr3107     O3114   2.374       .  S
Zr3108     O3134   2.435       .  S
Zr3108     O3135   2.435       .  S
Zr3108     O3110   2.435       .  S
Zr3108     O3111   2.418       .  S
Zr3108     O3112   2.427       .  S
O3109      H3146   0.990       .  S
O3110      H3141   0.990       .  S
O3110      H3155   0.990       .  S
O3112      H3138   0.966       .  S
O3113     Zr3123   2.399       .  S
O3114     Zr3123   2.362       .  S
O3114      H3139   0.965       .  S
C3115      C4710   1.506       .  S
C3116      C4705   1.438       .  S
C3117      C4701   1.433       .  S
O3118      H3154   0.990       .  S
O3119      C3121   1.301       .  A
O3120      C3121   1.279       .  A
C3121      C4821   1.512       .  S
O3122     Zr3123   2.440       .  S
O3122      H3151   0.990       .  S
Zr3123     O3126   2.439       .  S
Zr3123     O3127   2.443       .  S
Zr3123     O3128   2.343       .  S
O3124      C3129   1.291       .  A
O3125      H3142   0.990       .  S
O3125      H3157   0.990       .  S
O3126      H3143   0.990       .  S
O3127      H3147   0.990       .  S
O3127      H3156   0.990       .  S
O3128      C3129   1.269       .  A
C3129      C4766   1.474       .  S
O3130      H3149   0.990       .  S
O3130      H3153   0.990       .  S
O3131      H3145   0.990       .  S
O3131      H3152   0.990       .  S
O3132      C3136   1.278       .  A
O3133      C3136   1.271       .  A
O3134      H3144   0.990       .  S
O3135      H3148   0.990       .  S
C3136      C4703   1.406       .  S
Zr3159     O3161   2.418       .  S
Zr3159     O3165   2.415       .  S
Zr3159     O3167   2.390       .  S
Zr3159     O3168   2.385       .  S
Zr3159     O3169   2.402       .  S
Zr3159     O3170   2.389       .  S
O3160      H3216   0.989       .  S
O3160      H3224   0.989       .  S
O3161      C3181   1.282       .  A
O3162      C3183   1.280       .  A
O3163     Zr3173   2.393       .  S
O3163      C3182   1.275       .  A
O3164      C3183   1.283       .  A
O3165      C3182   1.278       .  A
O3166     Zr3174   2.459       .  S
O3166      C3181   1.288       .  A
O3167     Zr3172   2.411       .  S
O3167     Zr3174   2.380       .  S
O3168     Zr3173   2.377       .  S
O3168     Zr3174   2.365       .  S
O3168      H3203   0.965       .  S
O3169     Zr3172   2.432       .  S
O3169     Zr3189   2.344       .  S
O3169      H3206   0.961       .  S
O3170     Zr3173   2.377       .  S
O3170     Zr3189   2.364       .  S
Zr3171     O3196   2.443       .  S
Zr3171     O3190   2.461       .  S
Zr3171     O3198   2.411       .  S
Zr3171     O3186   2.405       .  S
Zr3171     O3177   2.410       .  S
Zr3171     O3178   2.413       .  S
Zr3171     O3179   2.377       .  S
Zr3171     O3180   2.388       .  S
Zr3172     O3191   2.437       .  S
Zr3172     O3184   2.435       .  S
Zr3172     O3185   2.499       .  S
Zr3172     O3178   2.394       .  S
Zr3172     O3179   2.395       .  S
Zr3173     O3175   2.438       .  S
Zr3173     O3197   2.438       .  S
Zr3173     O3199   2.391       .  S
Zr3173     O3177   2.388       .  S
Zr3173     O3180   2.364       .  S
Zr3174     O3200   2.436       .  S
Zr3174     O3201   2.435       .  S
Zr3174     O3176   2.435       .  S
Zr3174     O3177   2.398       .  S
Zr3174     O3178   2.417       .  S
O3175      H3212   0.990       .  S
O3176      H3207   0.990       .  S
O3176      H3221   0.990       .  S
O3178      H3204   0.966       .  S
O3179     Zr3189   2.391       .  S
O3180     Zr3189   2.371       .  S
O3180      H3205   0.965       .  S
C3182      C4694   1.441       .  S
C3183      C4702   1.433       .  S
O3184      H3220   0.990       .  S
O3185      C3187   1.296       .  A
O3186      C3187   1.281       .  A
C3187      C4769   1.501       .  S
O3188     Zr3189   2.441       .  S
O3188      H3217   0.990       .  S
Zr3189     O3192   2.436       .  S
Zr3189     O3193   2.437       .  S
Zr3189     O3194   2.363       .  S
O3190      C3195   1.286       .  A
O3191      H3208   0.990       .  S
O3191      H3223   0.990       .  S
O3192      H3209   0.990       .  S
O3193      H3213   0.991       .  S
O3193      H3222   0.990       .  S
O3194      C3195   1.265       .  A
C3195      C4826   1.461       .  S
O3196      H3215   0.990       .  S
O3196      H3219   0.990       .  S
O3197      H3211   0.990       .  S
O3197      H3218   0.990       .  S
O3198      C3202   1.279       .  A
O3199      C3202   1.270       .  A
O3200      H3210   0.990       .  S
O3201      H3214   0.990       .  S
C3202      C4704   1.407       .  S
Zr3225     O3226   2.436       .  S
Zr3225     O3227   2.442       .  S
Zr3225     O3228   2.429       .  S
Zr3225     O3231   2.425       .  S
Zr3225     O3233   2.371       .  S
Zr3225     O3234   2.410       .  S
Zr3225     O3235   2.390       .  S
Zr3225     O3236   2.388       .  S
O3226      H3282   0.989       .  S
O3226      H3290   0.987       .  S
O3227      C3247   1.287       .  A
O3228      C3249   1.281       .  A
O3229     Zr3239   2.472       .  S
O3229      C3248   1.289       .  A
O3230     Zr3238   2.365       .  S
O3230      C3249   1.275       .  A
O3231      C3248   1.280       .  A
O3232     Zr3240   2.525       .  S
O3232      C3247   1.302       .  A
O3233     Zr3238   2.383       .  S
O3233     Zr3240   2.351       .  S
O3234     Zr3239   2.438       .  S
O3234     Zr3240   2.367       .  S
O3234      H3269   0.965       .  S
O3235     Zr3238   2.390       .  S
O3235     Zr3255   2.360       .  S
O3235      H3272   0.965       .  S
O3236     Zr3239   2.388       .  S
O3236     Zr3255   2.335       .  S
Zr3237     O3264   2.399   1_655  S
Zr3237     O3243   2.432       .  S
Zr3237     O3244   2.421       .  S
Zr3237     O3245   2.359       .  S
Zr3237     O3246   2.374       .  S
Zr3238     O3257   2.437       .  S
Zr3238     O3250   2.435       .  S
Zr3238     O3244   2.379       .  S
Zr3238     O3245   2.375       .  S
Zr3239     O3241   2.435       .  S
Zr3239     O3263   2.438       .  S
Zr3239     O3265   2.543       .  S
Zr3239     O3243   2.385       .  S
Zr3239     O3246   2.390       .  S
Zr3240     O3266   2.435       .  S
Zr3240     O3267   2.435       .  S
Zr3240     O3242   2.435       .  S
Zr3240     O3243   2.448       .  S
Zr3240     O3244   2.428       .  S
O3241      H3278   0.990       .  S
O3242      H3273   0.990       .  S
O3242      H3287   0.990       .  S
O3245     Zr3255   2.372       .  S
O3246     Zr3255   2.398       .  S
O3246      H3271   0.966       .  S
C3247      C4762   1.525       .  S
C3248      C4755   1.435       .  S
C3249      C4788   1.441       .  S
O3250      H3286   0.990       .  S
O3251      C3253   1.273       .  A
O3252      C3253   1.280       .  A
C3253      C4753   1.411       .  S
O3254     Zr3255   2.440       .  S
O3254      H3283   0.990       .  S
Zr3255     O3258   2.439       .  S
Zr3255     O3259   2.440       .  S
Zr3255     O3260   2.340       .  S
O3256      C3261   1.294       .  A
O3257      H3289   0.990       .  S
O3258      H3275   0.990       .  S
O3259      H3279   0.990       .  S
O3259      H3288   0.990       .  S
C3261      C4685   1.479       .  S
O3262      H3281   0.990       .  S
O3262      H3285   0.990       .  S
O3263      H3277   0.990       .  S
O3263      H3284   0.989       .  S
O3264      C3268   1.278   1_455  A
O3265      C3268   1.305       .  A
O3266      H3276   0.990       .  S
Zr3291     O3292   2.440       .  S
Zr3291     O3293   2.462       .  S
Zr3291     O3294   2.428       .  S
Zr3291     O3297   2.409       .  S
Zr3291     O3299   2.395       .  S
Zr3291     O3300   2.381       .  S
Zr3291     O3301   2.409       .  S
Zr3291     O3302   2.387       .  S
O3292      H3348   0.986       .  S
O3292      H3356   0.990       .  S
O3293      C3313   1.292       .  A
O3294      C3315   1.280       .  A
O3295     Zr3305   2.380       .  S
O3295      C3314   1.277       .  A
O3296     Zr3304   2.463       .  S
O3296      C3315   1.286       .  A
O3297      C3314   1.279       .  A
O3298     Zr3306   2.495       .  S
O3298      C3313   1.296       .  A
O3299     Zr3304   2.416       .  S
O3299     Zr3306   2.375       .  S
O3300     Zr3305   2.364       .  S
O3300     Zr3306   2.358       .  S
O3300      H3335   0.965       .  S
O3301     Zr3304   2.421       .  S
O3301     Zr3321   2.345       .  S
O3301      H3338   0.961       .  S
O3302     Zr3305   2.371       .  S
O3302     Zr3321   2.365       .  S
Zr3303     O3328   2.442       .  S
Zr3303     O3322   2.468       .  S
Zr3303     O3330   2.408       .  S
Zr3303     O3318   2.407       .  S
Zr3303     O3309   2.412       .  S
Zr3303     O3310   2.418       .  S
Zr3303     O3311   2.373       .  S
Zr3303     O3312   2.374       .  S
Zr3304     O3323   2.438       .  S
Zr3304     O3316   2.434       .  S
Zr3304     O3317   2.516       .  S
Zr3304     O3310   2.391       .  S
Zr3304     O3311   2.393       .  S
Zr3305     O3307   2.437       .  S
Zr3305     O3329   2.436       .  S
Zr3305     O3331   2.393       .  S
Zr3305     O3309   2.383       .  S
Zr3305     O3312   2.361       .  S
Zr3306     O3332   2.435       .  S
Zr3306     O3333   2.435       .  S
Zr3306     O3308   2.435       .  S
Zr3306     O3309   2.412       .  S
Zr3306     O3310   2.432       .  S
O3307      H3344   0.990       .  S
O3308      H3339   0.990       .  S
O3308      H3353   0.990       .  S
O3310      H3336   0.966       .  S
O3311     Zr3321   2.391       .  S
O3312     Zr3321   2.368       .  S
O3312      H3337   0.965       .  S
C3313      C4681   1.513       .  S
C3314      C4678   1.443       .  S
C3315      C4734   1.440       .  S
O3316      H3352   0.990       .  S
O3317      C3319   1.300       .  A
O3318      C3319   1.280       .  A
C3319      C4794   1.510       .  S
O3320     Zr3321   2.442       .  S
O3320      H3349   0.990       .  S
Zr3321     O3324   2.437       .  S
Zr3321     O3325   2.438       .  S
Zr3321     O3326   2.365       .  S
O3322      C3327   1.287       .  A
O3323      H3340   0.990       .  S
O3323      H3355   0.990       .  S
O3324      H3341   0.990       .  S
O3325      H3345   0.990       .  S
O3325      H3354   0.990       .  S
O3326      C3327   1.266       .  A
C3327      C4780   1.466       .  S
O3328      H3347   0.990       .  S
O3328      H3351   0.990       .  S
O3329      H3343   0.990       .  S
O3329      H3350   0.990       .  S
O3330      C3334   1.280       .  A
O3331      C3334   1.274       .  A
O3332      H3342   0.990       .  S
O3333      H3346   0.990       .  S
C3334      C4736   1.403       .  S
Zr3357     O3358   2.444       .  S
Zr3357     O3363   2.392       .  S
Zr3357     O3366   2.385       .  S
Zr3357     O3367   2.415       .  S
Zr3357     O3368   2.410       .  S
O3358      H3414   0.990       .  S
O3358      H3422   0.990       .  S
O3359      C3379   1.290       .  A
O3360      C3381   1.279       .  A
O3361     Zr3371   2.413       .  S
O3361      C3380   1.275       .  A
O3362     Zr3370   2.449       .  S
O3362      C3381   1.284       .  A
O3363      C3380   1.273       .  A
O3364     Zr3372   2.457       .  S
O3364      C3379   1.286       .  A
O3365     Zr3370   2.404       .  S
O3365     Zr3372   2.383       .  S
O3366     Zr3371   2.405       .  S
O3366      H3401   0.966       .  S
O3367     Zr3387   2.407       .  S
O3367      H3404   0.965       .  S
O3368     Zr3371   2.394       .  S
O3368     Zr3387   2.393       .  S
Zr3369     O3394   2.444       .  S
Zr3369     O3388   2.433       .  S
Zr3369     O3396   2.397       .  S
Zr3369     O3384   2.390       .  S
Zr3369     O3375   2.394       .  S
Zr3369     O3377   2.369       .  S
Zr3369     O3378   2.372       .  S
Zr3370     O3389   2.438       .  S
Zr3370     O3382   2.435       .  S
Zr3370     O3383   2.455       .  S
Zr3370     O3376   2.394       .  S
Zr3371     O3373   2.435       .  S
Zr3371     O3395   2.437       .  S
Zr3371     O3397   2.433       .  S
Zr3371     O3375   2.387       .  S
Zr3371     O3378   2.381       .  S
Zr3372     O3398   2.435       .  S
Zr3372     O3399   2.435       .  S
Zr3372     O3374   2.436       .  S
Zr3372     O3376   2.418       .  S
O3373      H3410   0.990       .  S
O3374      H3405   0.990       .  S
O3374      H3419   0.990       .  S
O3376      H3402   0.966       .  S
O3377     Zr3387   2.367       .  S
O3378     Zr3387   2.385       .  S
O3378      H3403   0.966       .  S
C3379      C4709   1.503       .  S
C3380      C4693   1.438       .  S
C3381      C4676   1.437       .  S
O3382      H3418   0.990       .  S
O3383      C3385   1.290   1_655  A
C3385      C4845   1.469       .  S
O3386     Zr3387   2.439       .  S
O3386      H3415   0.990       .  S
Zr3387     O3390   2.437       .  S
Zr3387     O3391   2.438       .  S
Zr3387     O3392   2.440       .  S
O3388      C3393   1.285       .  A
O3389      H3406   0.990       .  S
O3390      H3407   0.990       .  S
O3391      H3411   0.990       .  S
O3391      H3420   0.990       .  S
O3392      C3393   1.284       .  A
C3393      C4834   1.477       .  S
O3394      H3413   0.990       .  S
O3395      H3409   0.990       .  S
O3395      H3416   0.990       .  S
O3396      C3400   1.277       .  A
O3397      C3400   1.282       .  A
O3398      H3408   0.990       .  S
O3399      H3412   0.990       .  S
C3400      C4673   1.422       .  S
Zr3423     O3424   2.443       .  S
Zr3423     O3425   2.480       .  S
Zr3423     O3426   2.426       .  S
Zr3423     O3429   2.390       .  S
Zr3423     O3431   2.374       .  S
Zr3423     O3432   2.386       .  S
Zr3423     O3433   2.423       .  S
Zr3423     O3434   2.416       .  S
O3424      H3480   0.990       .  S
O3424      H3488   0.990       .  S
O3425      C3445   1.292       .  A
O3426      C3447   1.280       .  A
O3427     Zr3437   2.414       .  S
O3427      C3446   1.273       .  A
O3428     Zr3436   2.463       .  S
O3428      C3447   1.287       .  A
O3429      C3446   1.269       .  A
O3430     Zr3438   2.472       .  S
O3430      C3445   1.289       .  A
O3431     Zr3436   2.405       .  S
O3431     Zr3438   2.382       .  S
O3432     Zr3437   2.403       .  S
O3432     Zr3438   2.370       .  S
O3432      H3467   0.965       .  S
O3433     Zr3436   2.401       .  S
O3433     Zr3453   2.419       .  S
O3433      H3470   0.965       .  S
O3434     Zr3437   2.394       .  S
O3434     Zr3453   2.402       .  S
Zr3435     O3460   2.447       .  S
Zr3435     O3454   2.474       .  S
Zr3435     O3462   2.415       .  S
Zr3435     O3450   2.371       .  S
Zr3435     O3441   2.397       .  S
Zr3435     O3442   2.421   1_554  S
Zr3435     O3443   2.368   1_554  S
Zr3435     O3444   2.366   1_554  S
Zr3436     O3455   2.438       .  S
Zr3436     O3448   2.435       .  S
Zr3436     O3449   2.461       .  S
Zr3436     O3442   2.398       .  S
Zr3436     O3443   2.393       .  S
Zr3437     O3439   2.435       .  S
Zr3437     O3461   2.438       .  S
Zr3437     O3463   2.425   1_556  S
Zr3437     O3441   2.383   1_556  S
Zr3437     O3444   2.390       .  S
Zr3438     O3464   2.435   1_556  S
Zr3438     O3465   2.436   1_556  S
Zr3438     O3440   2.437       .  S
Zr3438     O3441   2.406   1_556  S
Zr3438     O3442   2.424       .  S
O3439      H3476   0.990       .  S
O3440      H3471   0.990       .  S
O3440      H3485   0.990       .  S
O3442      H3468   0.966       .  S
O3443     Zr3453   2.362       .  S
O3444     Zr3453   2.389       .  S
O3444      H3469   0.966       .  S
C3445      C4682   1.513       .  S
C3446      C4738   1.432       .  S
C3447      C4672   1.444       .  S
O3448      H3484   0.990       .  S
O3449      C3451   1.290   1_556  A
O3450      C3451   1.274       .  A
C3451      C4829   1.469       .  S
O3452     Zr3453   2.439       .  S
O3452      H3481   0.990       .  S
Zr3453     O3456   2.437       .  S
Zr3453     O3457   2.438       .  S
Zr3453     O3458   2.464       .  S
O3454      C3459   1.293   1_554  A
O3455      H3472   0.990       .  S
O3455      H3487   0.990       .  S
O3456      H3473   0.990       .  S
O3457      H3477   0.990       .  S
O3457      H3486   0.990       .  S
O3458      C3459   1.287       .  A
C3459      C4850   1.508   1_556  S
O3460      H3479   0.990       .  S
O3460      H3483   0.990       .  S
O3461      H3475   0.990       .  S
O3461      H3482   0.990       .  S
O3462      C3466   1.280       .  A
O3463      C3466   1.279       .  A
O3464      H3474   0.990       .  S
O3465      H3478   0.990       .  S
C3466      C4674   1.424       .  S
Zr3489     O3490   2.440       .  S
Zr3489     O3491   2.445       .  S
Zr3489     O3492   2.410       .  S
Zr3489     O3495   2.352       .  S
Zr3489     O3497   2.367       .  S
Zr3489     O3498   2.377       .  S
Zr3489     O3499   2.396       .  S
Zr3489     O3500   2.408       .  S
O3490      H3546   0.990       .  S
O3490      H3554   0.990       .  S
O3491      C3511   1.286       .  A
O3492      C3513   1.278       .  A
O3493     Zr3503   2.424       .  S
O3493      C3512   1.280       .  A
O3494     Zr3502   2.469       .  S
O3494      C3513   1.288       .  A
O3495      C3512   1.272       .  A
O3496     Zr3504   2.440       .  S
O3496      C3511   1.285       .  A
O3497     Zr3502   2.388       .  S
O3497     Zr3504   2.384       .  S
O3498     Zr3503   2.381       .  S
O3498     Zr3504   2.361       .  S
O3498      H3533   0.964       .  S
O3499     Zr3502   2.394       .  S
O3499     Zr3519   2.410       .  S
O3499      H3536   0.966       .  S
O3500     Zr3503   2.395       .  S
O3500     Zr3519   2.410       .  S
Zr3501     O3526   2.448       .  S
Zr3501     O3520   2.473       .  S
Zr3501     O3528   2.412       .  S
Zr3501     O3516   2.327       .  S
Zr3501     O3507   2.383       .  S
Zr3501     O3508   2.415       .  S
Zr3501     O3509   2.370       .  S
Zr3501     O3510   2.359       .  S
Zr3502     O3521   2.437       .  S
Zr3502     O3514   2.436       .  S
Zr3502     O3515   2.431       .  S
Zr3502     O3508   2.407       .  S
Zr3502     O3509   2.402       .  S
Zr3503     O3505   2.434       .  S
Zr3503     O3527   2.439       .  S
Zr3503     O3529   2.430       .  S
Zr3503     O3507   2.386       .  S
Zr3503     O3510   2.388       .  S
Zr3504     O3530   2.435       .  S
Zr3504     O3531   2.436       .  S
Zr3504     O3506   2.437       .  S
Zr3504     O3507   2.402       .  S
Zr3504     O3508   2.398       .  S
O3505      H3542   0.990       .  S
O3506      H3537   0.990       .  S
O3506      H3551   0.990       .  S
O3508      H3534   0.966       .  S
O3509     Zr3519   2.359       .  S
O3510     Zr3519   2.387       .  S
O3510      H3535   0.966       .  S
C3511      C4742   1.485       .  S
C3512      C4677   1.442       .  S
C3513      C4671   1.444       .  S
O3514      H3550   0.990       .  S
O3515      C3517   1.282       .  A
O3516      C3517   1.268       .  A
C3517      C4667   1.441       .  S
O3518     Zr3519   2.439       .  S
O3518      H3547   0.990       .  S
Zr3519     O3522   2.437       .  S
Zr3519     O3523   2.440       .  S
Zr3519     O3524   2.464       .  S
O3520      C3525   1.292       .  A
O3521      H3538   0.990       .  S
O3521      H3553   0.990       .  S
O3522      H3539   0.990       .  S
O3523      H3543   0.990       .  S
O3523      H3552   0.989       .  S
O3524      C3525   1.289       .  A
C3525      C4663   1.513       .  S
O3526      H3545   0.990       .  S
O3526      H3549   0.990       .  S
O3527      H3541   0.990       .  S
O3527      H3548   0.990       .  S
O3528      C3532   1.280       .  A
O3529      C3532   1.281       .  A
O3530      H3540   0.990       .  S
O3531      H3544   0.990       .  S
C3532      C4661   1.429       .  S
Zr3555     O3556   2.442       .  S
Zr3555     O3557   2.447       .  S
Zr3555     O3558   2.425       .  S
Zr3555     O3561   2.393       .  S
Zr3555     O3563   2.371       .  S
Zr3555     O3564   2.391       .  S
Zr3555     O3565   2.410       .  S
Zr3555     O3566   2.415       .  S
O3556      H3612   0.990       .  S
O3556      H3620   0.991       .  S
O3557      C3577   1.285       .  A
O3558      C3579   1.278       .  A
O3559     Zr3569   2.421       .  S
O3559      C3578   1.274       .  A
O3560     Zr3568   2.448       .  S
O3560      C3579   1.283       .  A
O3561      C3578   1.272       .  A
O3562     Zr3570   2.426       .  S
O3562      C3577   1.282       .  A
O3563     Zr3568   2.394       .  S
O3563     Zr3570   2.384       .  S
O3564     Zr3569   2.409       .  S
O3564     Zr3570   2.368       .  S
O3564      H3599   0.965       .  S
O3565     Zr3568   2.397       .  S
O3565     Zr3585   2.408       .  S
O3565      H3602   0.965       .  S
O3566     Zr3569   2.405       .  S
O3566     Zr3585   2.402       .  S
Zr3567     O3592   2.442       .  S
Zr3567     O3586   2.438       .  S
Zr3567     O3594   2.394       .  S
Zr3567     O3582   2.345       .  S
Zr3567     O3573   2.383       .  S
Zr3567     O3574   2.403       .  S
Zr3567     O3575   2.365       .  S
Zr3567     O3576   2.365       .  S
Zr3568     O3587   2.438       .  S
Zr3568     O3580   2.435       .  S
Zr3568     O3581   2.435       .  S
Zr3568     O3574   2.402       .  S
Zr3568     O3575   2.384       .  S
Zr3569     O3571   2.435       .  S
Zr3569     O3593   2.437       .  S
Zr3569     O3595   2.443       .  S
Zr3569     O3573   2.391       .  S
Zr3569     O3576   2.387       .  S
Zr3570     O3596   2.435       .  S
Zr3570     O3597   2.435       .  S
Zr3570     O3572   2.437       .  S
Zr3570     O3573   2.401       .  S
Zr3570     O3574   2.398       .  S
O3571      H3608   0.990       .  S
O3572      H3603   0.990       .  S
O3572      H3617   0.990       .  S
O3574      H3600   0.966       .  S
O3575     Zr3585   2.354       .  S
O3576     Zr3585   2.385       .  S
O3576      H3601   0.966       .  S
C3577      C4698   1.480       .  S
C3578      C4706   1.459       .  S
C3579      C4675   1.437       .  S
O3580      H3616   0.990       .  S
O3581      C3583   1.284       .  A
O3582      C3583   1.271       .  A
C3583      C4653   1.448       .  S
O3584     Zr3585   2.439       .  S
O3584      H3613   0.990       .  S
Zr3585     O3588   2.437       .  S
Zr3585     O3589   2.441       .  S
Zr3585     O3590   2.453       .  S
O3586      C3591   1.285       .  A
O3587      H3604   0.990       .  S
O3587      H3619   0.990       .  S
O3588      H3605   0.990       .  S
O3589      H3609   0.990       .  S
O3589      H3618   0.989       .  S
O3590      C3591   1.287       .  A
C3591      C4657   1.492       .  S
O3592      H3611   0.990       .  S
O3592      H3615   0.990       .  S
O3593      H3607   0.990       .  S
O3593      H3614   0.990       .  S
O3594      C3598   1.276       .  A
O3595      C3598   1.284       .  A
O3596      H3606   0.990       .  S
O3597      H3610   0.990       .  S
C3598      C4662   1.427       .  S
Zr3621     O3622   2.437       .  S
Zr3621     O3623   2.455       .  S
Zr3621     O3624   2.428       .  S
Zr3621     O3627   2.420       .  S
Zr3621     O3629   2.368       .  S
Zr3621     O3630   2.407       .  S
Zr3621     O3631   2.391       .  S
Zr3621     O3632   2.394       .  S
O3622      H3678   0.989       .  S
O3622      H3686   0.987       .  S
O3623      C3643   1.290       .  A
O3624      C3645   1.282       .  A
O3625     Zr3635   2.473       .  S
O3625      C3644   1.290       .  A
O3626     Zr3634   2.372       .  S
O3626      C3645   1.275       .  A
O3627      C3644   1.280       .  A
O3628     Zr3636   2.489       .  S
O3628      C3643   1.295       .  A
O3629     Zr3634   2.376       .  S
O3629     Zr3636   2.359       .  S
O3630     Zr3635   2.428       .  S
O3630     Zr3636   2.372       .  S
O3630      H3665   0.966       .  S
O3631     Zr3634   2.383       .  S
O3631     Zr3651   2.376       .  S
O3631      H3668   0.964       .  S
O3632     Zr3635   2.384       .  S
O3632     Zr3651   2.353       .  S
Zr3633     O3660   2.399   1_655  S
Zr3633     O3639   2.422       .  S
Zr3633     O3640   2.411       .  S
Zr3633     O3641   2.363       .  S
Zr3633     O3642   2.382       .  S
Zr3634     O3653   2.437       .  S
Zr3634     O3646   2.435       .  S
Zr3634     O3640   2.385       .  S
Zr3634     O3641   2.372       .  S
Zr3635     O3637   2.435       .  S
Zr3635     O3659   2.438       .  S
Zr3635     O3661   2.532       .  S
Zr3635     O3639   2.388       .  S
Zr3635     O3642   2.386       .  S
Zr3636     O3662   2.435       .  S
Zr3636     O3663   2.434       .  S
Zr3636     O3638   2.436       .  S
Zr3636     O3639   2.432       .  S
Zr3636     O3640   2.413       .  S
O3637      H3674   0.990       .  S
O3638      H3669   0.990       .  S
O3638      H3683   0.990       .  S
O3641     Zr3651   2.371       .  S
O3642     Zr3651   2.397       .  S
O3642      H3667   0.965       .  S
C3643      C4664   1.512       .  S
C3644      C4642   1.437       .  S
C3645      C4654   1.445       .  S
O3646      H3682   0.990       .  S
O3647      C3649   1.272       .  A
O3648      C3649   1.280       .  A
C3649      C4644   1.403       .  S
O3650     Zr3651   2.442       .  S
O3650      H3679   0.990       .  S
Zr3651     O3654   2.439       .  S
Zr3651     O3655   2.444       .  S
Zr3651     O3656   2.381       .  S
O3652      C3657   1.286       .  A
O3653      H3685   0.990       .  S
O3654      H3671   0.990       .  S
O3655      H3675   0.990       .  S
O3655      H3684   0.989       .  S
C3657      C4645   1.472       .  S
O3658      H3677   0.990       .  S
O3658      H3681   0.990       .  S
O3659      H3673   0.990       .  S
O3659      H3680   0.989       .  S
O3660      C3664   1.279   1_455  A
O3661      C3664   1.303       .  A
O3662      H3672   0.990       .  S
Zr3687     O3688   2.428       .  S
Zr3687     O3689   2.449       .  S
Zr3687     O3690   2.414       .  S
Zr3687     O3693   2.439       .  S
Zr3687     O3695   2.374       .  S
Zr3687     O3696   2.400       .  S
Zr3687     O3697   2.420       .  S
Zr3687     O3698   2.388       .  S
O3688      H3744   0.991       .  S
O3688      H3752   0.991       .  S
O3689      C3709   1.287       .  A
O3690      C3711   1.273       .  A
O3691     Zr3701   2.465       .  S
O3691      C3710   1.287       .  A
O3692     Zr3700   2.377       .  S
O3692      C3711   1.270       .  A
O3693      C3710   1.281       .  A
O3694     Zr3702   2.444       .  S
O3694      C3709   1.285       .  A
O3695     Zr3700   2.391       .  S
O3695     Zr3702   2.370       .  S
O3696     Zr3701   2.425       .  S
O3696     Zr3702   2.382       .  S
O3696      H3731   0.966       .  S
O3697     Zr3700   2.392       .  S
O3697     Zr3717   2.368       .  S
O3697      H3734   0.964       .  S
O3698     Zr3701   2.375       .  S
O3698     Zr3717   2.348       .  S
Zr3699     O3724   2.443       .  S
Zr3699     O3718   2.451       .  S
Zr3699     O3726   2.387       .  S
Zr3699     O3714   2.415       .  S
Zr3699     O3705   2.411       .  S
Zr3699     O3706   2.402       .  S
Zr3699     O3707   2.365       .  S
Zr3699     O3708   2.388       .  S
Zr3700     O3719   2.439       .  S
Zr3700     O3712   2.435       .  S
Zr3700     O3713   2.383       .  S
Zr3700     O3706   2.392       .  S
Zr3700     O3707   2.358       .  S
Zr3701     O3703   2.437       .  S
Zr3701     O3725   2.438       .  S
Zr3701     O3727   2.499       .  S
Zr3701     O3705   2.390       .  S
Zr3701     O3708   2.393       .  S
Zr3702     O3728   2.435       .  S
Zr3702     O3729   2.434       .  S
Zr3702     O3704   2.437       .  S
Zr3702     O3705   2.414       .  S
Zr3702     O3706   2.398       .  S
O3703      H3740   0.990       .  S
O3704      H3735   0.990       .  S
O3704      H3749   0.990       .  S
O3706      H3732   0.966       .  S
O3707     Zr3717   2.370       .  S
O3708     Zr3717   2.393       .  S
O3708      H3733   0.965       .  S
C3709      C4658   1.491       .  S
C3710      C4641   1.437       .  S
C3711      C4668   1.437       .  S
O3712      H3748   0.990       .  S
O3713      C3715   1.272       .  A
O3714      C3715   1.280       .  A
C3715      C4643   1.403       .  S
O3716     Zr3717   2.441       .  S
O3716      H3745   0.990       .  S
Zr3717     O3720   2.437       .  S
Zr3717     O3721   2.443       .  S
Zr3717     O3722   2.386       .  S
O3718      C3723   1.283       .  A
O3719      H3736   0.990       .  S
O3719      H3751   0.989       .  S
O3720      H3737   0.990       .  S
O3721      H3741   0.990       .  S
O3721      H3750   0.989       .  S
O3722      C3723   1.269       .  A
C3723      C4634   1.465       .  S
O3724      H3743   0.990       .  S
O3724      H3747   0.990       .  S
O3725      H3739   0.990       .  S
O3725      H3746   0.990       .  S
O3726      C3730   1.278       .  A
O3727      C3730   1.296       .  A
O3728      H3738   0.990       .  S
O3729      H3742   0.990       .  S
C3730      C4638   1.494       .  S
Zr3753     O3754   2.441       .  S
Zr3753     O3755   2.456       .  S
Zr3753     O3756   2.410       .  S
Zr3753     O3759   2.381       .  S
Zr3753     O3761   2.373       .  S
Zr3753     O3762   2.376       .  S
Zr3753     O3763   2.411       .  S
Zr3753     O3764   2.414       .  S
O3754      H3810   0.991       .  S
O3754      H3818   0.990       .  S
O3755      C3775   1.288       .  A
O3756      C3777   1.278       .  A
O3757     Zr3767   2.460       .  S
O3757      C3776   1.290       .  A
O3758     Zr3766   2.465       .  S
O3758      C3777   1.286       .  A
O3759      C3776   1.275       .  A
O3760     Zr3768   2.474       .  S
O3760      C3775   1.289       .  A
O3761     Zr3766   2.398       .  S
O3761     Zr3768   2.385       .  S
O3762     Zr3767   2.392       .  S
O3762     Zr3768   2.368       .  S
O3762      H3797   0.966       .  S
O3763     Zr3766   2.407       .  S
O3763     Zr3783   2.410       .  S
O3763      H3800   0.965       .  S
O3764     Zr3767   2.390       .  S
O3764     Zr3783   2.416       .  S
Zr3765     O3790   2.443       .  S
Zr3765     O3784   2.489       .  S
Zr3765     O3792   2.399       .  S
Zr3765     O3780   2.380       .  S
Zr3765     O3771   2.406       .  S
Zr3765     O3772   2.425       .  S
Zr3765     O3773   2.367       .  S
Zr3765     O3774   2.368       .  S
Zr3766     O3785   2.441       .  S
Zr3766     O3778   2.436       .  S
Zr3766     O3779   2.451       .  S
Zr3766     O3772   2.402       .  S
Zr3766     O3773   2.406       .  S
Zr3767     O3769   2.435       .  S
Zr3767     O3791   2.437       .  S
Zr3767     O3793   2.453       .  S
Zr3767     O3771   2.392       .  S
Zr3767     O3774   2.402       .  S
Zr3768     O3794   2.436       .  S
Zr3768     O3795   2.436       .  S
Zr3768     O3770   2.437       .  S
Zr3768     O3771   2.409       .  S
Zr3768     O3772   2.422       .  S
O3769      H3806   0.990       .  S
O3770      H3801   0.990       .  S
O3770      H3815   0.990       .  S
O3772      H3798   0.966       .  S
O3773     Zr3783   2.368       .  S
O3774     Zr3783   2.382       .  S
O3774      H3799   0.966       .  S
C3775      C4626   1.504       .  S
C3776      C4630   1.468       .  S
C3777      C4623   1.438       .  S
O3778      H3814   0.990       .  S
O3779      C3781   1.285       .  A
O3780      C3781   1.273       .  A
C3781      C4721   1.466       .  S
O3782     Zr3783   2.438       .  S
O3782      H3811   0.990       .  S
Zr3783     O3786   2.437       .  S
Zr3783     O3787   2.438       .  S
Zr3783     O3788   2.473       .  S
O3784      C3789   1.295       .  A
O3785      H3802   0.990       .  S
O3785      H3817   0.990       .  S
O3786      H3803   0.990       .  S
O3787      H3807   0.990       .  S
O3787      H3816   0.990       .  S
O3788      C3789   1.287       .  A
C3789      C4718   1.521       .  S
O3790      H3809   0.990       .  S
O3790      H3813   0.990       .  S
O3791      H3805   0.990       .  S
O3791      H3812   0.990       .  S
O3792      C3796   1.277       .  A
O3793      C3796   1.286       .  A
O3794      H3804   0.990       .  S
O3795      H3808   0.990       .  S
C3796      C4621   1.433       .  S
Zr3819     O3820   2.442       .  S
Zr3819     O3825   2.391       .  S
Zr3819     O3828   2.394       .  S
Zr3819     O3829   2.419       .  S
Zr3819     O3830   2.423       .  S
O3820      H3876   0.990       .  S
O3820      H3884   0.990       .  S
O3821      C3841   1.294       .  A
O3822      C3843   1.284       .  A
O3823     Zr3833   2.408       .  S
O3823      C3842   1.271       .  A
O3824      C3843   1.291       .  A
O3825      C3842   1.267       .  A
O3826     Zr3834   2.482       .  S
O3826      C3841   1.290       .  A
O3827     Zr3834   2.380       .  S
O3828     Zr3833   2.424       .  S
O3828      H3863   0.965       .  S
O3829     Zr3832   2.398       .  S
O3829     Zr3849   2.429       .  S
O3829      H3866   0.966       .  S
O3830     Zr3833   2.405       .  S
O3830     Zr3849   2.398       .  S
Zr3831     O3856   2.444       .  S
Zr3831     O3850   2.454       .  S
Zr3831     O3858   2.413       .  S
Zr3831     O3846   2.374       .  S
Zr3831     O3837   2.398       .  S
Zr3831     O3838   2.419       .  S
Zr3831     O3839   2.373       .  S
Zr3831     O3840   2.367       .  S
Zr3832     O3851   2.437       .  S
Zr3832     O3838   2.402       .  S
Zr3832     O3839   2.390       .  S
Zr3833     O3835   2.435       .  S
Zr3833     O3857   2.437       .  S
Zr3833     O3859   2.451       .  S
Zr3833     O3837   2.383       .  S
Zr3833     O3840   2.386       .  S
Zr3834     O3860   2.435       .  S
Zr3834     O3861   2.434       .  S
Zr3834     O3836   2.436       .  S
O3835      H3872   0.990       .  S
O3836      H3867   0.990       .  S
O3836      H3881   0.990       .  S
O3839     Zr3849   2.363       .  S
O3840     Zr3849   2.393       .  S
O3840      H3865   0.966       .  S
C3841      C4614   1.524       .  S
C3842      C4618   1.430       .  S
C3843      C4610   1.464       .  S
O3844      H3880   0.990       .  S
O3846      C3847   1.273       .  A
C3847      C4686   1.470       .  S
O3848     Zr3849   2.440       .  S
O3848      H3877   0.990       .  S
Zr3849     O3852   2.437       .  S
Zr3849     O3853   2.439       .  S
Zr3849     O3854   2.466       .  S
O3850      C3855   1.289       .  A
O3851      H3883   0.990       .  S
O3852      H3869   0.990       .  S
O3853      H3873   0.990       .  S
O3853      H3882   0.990       .  S
O3854      C3855   1.288       .  A
C3855      C4749   1.499       .  S
O3856      H3875   0.990       .  S
O3856      H3879   0.990       .  S
O3857      H3871   0.990       .  S
O3857      H3878   0.990       .  S
O3858      C3862   1.279       .  A
O3859      C3862   1.285       .  A
O3860      H3870   0.990       .  S
O3861      H3874   0.990       .  S
C3862      C4612   1.440       .  S
Zr3885     O3886   2.442       .  S
Zr3885     O3887   2.477       .  S
Zr3885     O3888   2.416       .  S
Zr3885     O3891   2.365       .  S
Zr3885     O3893   2.369       .  S
Zr3885     O3894   2.377       .  S
Zr3885     O3895   2.411       .  S
Zr3885     O3896   2.420       .  S
O3886      H3942   0.991       .  S
O3886      H3950   0.990       .  S
O3887      C3907   1.293       .  A
O3888      C3909   1.279       .  A
O3889     Zr3899   2.457       .  S
O3889      C3908   1.288       .  A
O3890     Zr3898   2.458       .  S
O3890      C3909   1.286       .  A
O3891      C3908   1.272       .  A
O3892     Zr3900   2.487       .  S
O3892      C3907   1.291       .  A
O3893     Zr3898   2.404       .  S
O3893     Zr3900   2.385       .  S
O3894     Zr3899   2.399       .  S
O3894     Zr3900   2.363       .  S
O3894      H3929   0.966       .  S
O3895     Zr3898   2.402       .  S
O3895     Zr3915   2.409       .  S
O3895      H3932   0.965       .  S
O3896     Zr3899   2.392       .  S
O3896     Zr3915   2.417       .  S
Zr3897     O3922   2.446       .  S
Zr3897     O3916   2.476       .  S
Zr3897     O3924   2.404       .  S
Zr3897     O3912   2.381       .  S
Zr3897     O3903   2.407       .  S
Zr3897     O3904   2.420       .  S
Zr3897     O3905   2.366       .  S
Zr3897     O3906   2.369       .  S
Zr3898     O3917   2.438       .  S
Zr3898     O3910   2.435       .  S
Zr3898     O3911   2.454       .  S
Zr3898     O3904   2.396       .  S
Zr3898     O3905   2.396       .  S
Zr3899     O3901   2.436       .  S
Zr3899     O3923   2.437       .  S
Zr3899     O3925   2.462       .  S
Zr3899     O3903   2.389       .  S
Zr3899     O3906   2.395       .  S
Zr3900     O3926   2.436       .  S
Zr3900     O3927   2.435       .  S
Zr3900     O3902   2.436       .  S
Zr3900     O3903   2.414       .  S
Zr3900     O3904   2.424       .  S
O3901      H3938   0.990       .  S
O3902      H3933   0.990       .  S
O3902      H3947   0.990       .  S
O3904      H3930   0.966       .  S
O3905     Zr3915   2.369       .  S
O3906     Zr3915   2.382       .  S
O3906      H3931   0.966       .  S
C3907      C4605   1.520       .  S
C3908      C4601   1.460       .  S
C3909      C4624   1.439       .  S
O3910      H3946   0.990       .  S
O3911      C3913   1.289       .  A
O3912      C3913   1.275       .  A
C3913      C4746   1.469       .  S
O3914     Zr3915   2.439       .  S
O3914      H3943   0.990       .  S
Zr3915     O3918   2.437       .  S
Zr3915     O3919   2.439       .  S
Zr3915     O3920   2.475       .  S
O3916      C3921   1.293       .  A
O3917      H3934   0.990       .  S
O3917      H3949   0.990       .  S
O3918      H3935   0.990       .  S
O3919      H3939   0.990       .  S
O3919      H3948   0.990       .  S
O3920      C3921   1.289       .  A
C3921      C4689   1.515       .  S
O3922      H3941   0.990       .  S
O3922      H3945   0.990       .  S
O3923      H3937   0.990       .  S
O3923      H3944   0.990       .  S
O3924      C3928   1.278       .  A
O3925      C3928   1.288       .  A
O3926      H3936   0.990       .  S
O3927      H3940   0.990       .  S
C3928      C4611   1.439       .  S
Zr3951     O3952   2.442       .  S
Zr3951     O3953   2.468       .  S
Zr3951     O3954   2.436       .  S
Zr3951     O3957   2.398       .  S
Zr3951     O3959   2.372       .  S
Zr3951     O3960   2.390       .  S
Zr3951     O3961   2.416       .  S
Zr3951     O3962   2.412       .  S
O3952      H4008   0.990       .  S
O3952      H4016   0.990       .  S
O3953      C3973   1.290       .  A
O3954      C3975   1.282       .  A
O3955     Zr3965   2.398       .  S
O3955      C3974   1.270       .  A
O3956     Zr3964   2.486       .  S
O3956      C3975   1.293       .  A
O3957      C3974   1.270       .  A
O3958     Zr3966   2.475       .  S
O3958      C3973   1.290       .  A
O3959     Zr3964   2.402       .  S
O3959     Zr3966   2.379       .  S
O3960     Zr3965   2.409       .  S
O3960     Zr3966   2.364       .  S
O3960      H3995   0.965       .  S
O3961     Zr3964   2.401       .  S
O3961     Zr3981   2.426       .  S
O3961      H3998   0.966       .  S
O3962     Zr3965   2.403       .  S
O3962     Zr3981   2.392       .  S
Zr3963     O3988   2.444       .  S
Zr3963     O3982   2.459       .  S
Zr3963     O3990   2.419       .  S
Zr3963     O3978   2.384       .  S
Zr3963     O3969   2.397       .  S
Zr3963     O3970   2.421   1_554  S
Zr3963     O3971   2.374   1_554  S
Zr3963     O3972   2.367   1_554  S
Zr3964     O3983   2.437       .  S
Zr3964     O3976   2.435       .  S
Zr3964     O3977   2.478       .  S
Zr3964     O3970   2.403       .  S
Zr3964     O3971   2.394       .  S
Zr3965     O3967   2.435       .  S
Zr3965     O3989   2.437       .  S
Zr3965     O3991   2.435   1_556  S
Zr3965     O3969   2.383   1_556  S
Zr3965     O3972   2.382       .  S
Zr3966     O3992   2.435   1_556  S
Zr3966     O3993   2.435   1_556  S
Zr3966     O3968   2.436       .  S
Zr3966     O3969   2.411   1_556  S
Zr3966     O3970   2.422       .  S
O3967      H4004   0.990       .  S
O3968      H3999   0.990       .  S
O3968      H4013   0.990       .  S
O3970      H3996   0.966   1_556  S
O3971     Zr3981   2.363       .  S
O3972     Zr3981   2.392       .  S
O3972      H3997   0.966       .  S
C3973      C4598   1.510       .  S
C3974      C4593   1.427       .  S
C3975      C4609   1.463       .  S
O3976      H4012   0.990       .  S
O3977      C3979   1.294   1_556  A
O3978      C3979   1.276       .  A
C3979      C4713   1.478       .  S
O3980     Zr3981   2.439       .  S
O3980      H4009   0.990       .  S
Zr3981     O3984   2.437       .  S
Zr3981     O3985   2.438       .  S
Zr3981     O3986   2.460       .  S
O3982      C3987   1.290   1_554  A
O3983      H4000   0.990       .  S
O3983      H4015   0.990       .  S
O3984      H4001   0.990       .  S
O3985      H4005   0.990       .  S
O3985      H4014   0.990       .  S
O3986      C3987   1.287       .  A
C3987      C4726   1.497   1_556  S
O3988      H4007   0.990       .  S
O3988      H4011   0.990       .  S
O3989      H4003   0.990       .  S
O3989      H4010   0.990       .  S
O3990      C3994   1.281       .  A
O3991      C3994   1.282       .  A
O3992      H4002   0.990       .  S
O3993      H4006   0.990       .  S
C3994      C4622   1.435       .  S
Zr4017     O4018   2.446       .  S
Zr4017     O4019   2.456       .  S
Zr4017     O4020   2.423   1_545  S
Zr4017     O4023   2.374       .  S
Zr4017     O4025   2.367       .  S
Zr4017     O4026   2.380       .  S
Zr4017     O4027   2.410   1_545  S
Zr4017     O4028   2.420       .  S
O4018      H4074   0.991       .  S
O4018      H4082   0.991       .  S
O4019      C4039   1.286       .  A
O4020      C4041   1.278       .  A
O4021     Zr4031   2.452       .  S
O4021      C4040   1.287       .  A
O4022     Zr4030   2.432       .  S
O4022      C4041   1.279       .  A
O4023      C4040   1.273       .  A
O4024     Zr4032   2.443       .  S
O4024      C4039   1.282       .  A
O4025     Zr4030   2.398   1_545  S
O4025     Zr4032   2.389       .  S
O4026     Zr4031   2.408       .  S
O4026     Zr4032   2.373       .  S
O4026      H4061   0.966       .  S
O4027     Zr4030   2.402       .  S
O4027     Zr4047   2.404       .  S
O4027      H4064   0.964       .  S
O4028     Zr4031   2.401       .  S
O4028     Zr4047   2.419   1_545  S
Zr4029     O4054   2.444       .  S
Zr4029     O4048   2.471       .  S
Zr4029     O4056   2.393   1_565  S
Zr4029     O4044   2.335       .  S
Zr4029     O4035   2.392   1_565  S
Zr4029     O4036   2.410   1_554  S
Zr4029     O4037   2.360   1_554  S
Zr4029     O4038   2.362   1_564  S
Zr4030     O4049   2.438       .  S
Zr4030     O4042   2.436       .  S
Zr4030     O4043   2.416       .  S
Zr4030     O4036   2.400       .  S
Zr4030     O4037   2.393       .  S
Zr4031     O4033   2.435       .  S
Zr4031     O4055   2.436       .  S
Zr4031     O4057   2.478   1_556  S
Zr4031     O4035   2.386   1_556  S
Zr4031     O4038   2.394       .  S
Zr4032     O4058   2.436   1_556  S
Zr4032     O4059   2.436   1_556  S
Zr4032     O4034   2.436       .  S
Zr4032     O4035   2.406   1_556  S
Zr4032     O4036   2.404   1_545  S
O4033      H4070   0.990       .  S
O4034      H4065   0.990       .  S
O4034      H4079   0.990       .  S
O4036      H4062   0.966   1_556  S
O4037     Zr4047   2.357       .  S
O4038     Zr4047   2.382   1_545  S
O4038      H4063   0.965       .  S
C4039      C4586   1.492       .  S
C4040      C4590   1.461       .  S
C4041      C4582   1.428       .  S
O4042      H4078   0.990       .  S
O4043      C4045   1.279   1_556  A
O4044      C4045   1.269       .  A
C4045      C4837   1.440       .  S
O4046     Zr4047   2.439       .  S
O4046      H4075   0.990       .  S
Zr4047     O4050   2.438       .  S
Zr4047     O4051   2.440       .  S
Zr4047     O4052   2.477       .  S
O4048      C4053   1.292   1_554  A
O4049      H4066   0.990       .  S
O4049      H4081   0.990       .  S
O4050      H4067   0.990       .  S
O4051      H4071   0.990       .  S
O4051      H4080   0.990       .  S
O4052      C4053   1.290       .  A
C4053      C4861   1.517   1_556  S
O4054      H4073   0.991       .  S
O4054      H4077   0.990       .  S
O4055      H4069   0.990       .  S
O4055      H4076   0.990       .  S
O4056      C4060   1.276       .  A
O4057      C4060   1.291       .  A
O4058      H4068   0.990       .  S
O4059      H4072   0.990       .  S
C4060      C4584   1.442       .  S
Zr4083     O4084   2.441       .  S
Zr4083     O4085   2.458       .  S
Zr4083     O4086   2.424       .  S
Zr4083     O4089   2.348       .  S
Zr4083     O4091   2.363       .  S
Zr4083     O4092   2.382       .  S
Zr4083     O4093   2.392   1_545  S
Zr4083     O4094   2.410       .  S
O4084      H4140   0.990       .  S
O4084      H4148   0.990       .  S
O4085      C4105   1.289       .  A
O4086      C4107   1.280   1_545  A
O4087     Zr4097   2.412       .  S
O4087      C4106   1.277       .  A
O4088     Zr4096   2.465       .  S
O4088      C4107   1.288       .  A
O4089      C4106   1.273       .  A
O4090     Zr4098   2.450       .  S
O4090      C4105   1.286       .  A
O4091     Zr4096   2.391   1_545  S
O4091     Zr4098   2.382       .  S
O4092     Zr4097   2.401       .  S
O4092     Zr4098   2.361       .  S
O4092      H4127   0.965       .  S
O4093     Zr4096   2.392       .  S
O4093     Zr4113   2.408       .  S
O4093      H4130   0.966       .  S
O4094     Zr4097   2.402       .  S
O4094     Zr4113   2.400   1_545  S
Zr4095     O4120   2.446       .  S
Zr4095     O4114   2.444       .  S
Zr4095     O4122   2.420   1_565  S
Zr4095     O4110   2.340       .  S
Zr4095     O4101   2.381   1_565  S
Zr4095     O4102   2.412       .  S
Zr4095     O4103   2.372       .  S
Zr4095     O4104   2.362       .  S
Zr4096     O4115   2.437       .  S
Zr4096     O4108   2.435       .  S
Zr4096     O4109   2.431       .  S
Zr4096     O4102   2.408       .  S
Zr4096     O4103   2.393       .  S
Zr4097     O4099   2.435       .  S
Zr4097     O4121   2.439       .  S
Zr4097     O4123   2.453       .  S
Zr4097     O4101   2.382       .  S
Zr4097     O4104   2.382   1_545  S
Zr4098     O4124   2.435       .  S
Zr4098     O4125   2.435       .  S
Zr4098     O4100   2.436       .  S
Zr4098     O4101   2.404       .  S
Zr4098     O4102   2.403   1_545  S
O4099      H4136   0.990       .  S
O4100      H4131   0.990       .  S
O4100      H4145   0.990       .  S
O4102      H4128   0.966       .  S
O4103     Zr4113   2.358       .  S
O4104     Zr4113   2.393       .  S
O4104      H4129   0.966       .  S
C4105      C4576   1.498       .  S
C4106      C4571   1.432       .  S
C4107      C4579   1.449       .  S
O4108      H4144   0.990       .  S
O4109      C4111   1.283       .  A
O4110      C4111   1.269       .  A
C4111      C4858   1.448       .  S
O4112     Zr4113   2.439       .  S
O4112      H4141   0.990       .  S
Zr4113     O4116   2.438       .  S
Zr4113     O4117   2.440       .  S
Zr4113     O4118   2.444       .  S
O4114      C4119   1.287       .  A
O4115      H4132   0.990       .  S
O4115      H4147   0.990       .  S
O4116      H4133   0.990       .  S
O4117      H4137   0.990       .  S
O4117      H4146   0.989       .  S
O4118      C4119   1.286       .  A
C4119      C4841   1.490       .  S
O4120      H4139   0.990       .  S
O4120      H4143   0.990       .  S
O4121      H4135   0.990       .  S
O4121      H4142   0.990       .  S
O4122      C4126   1.280       .  A
O4123      C4126   1.285       .  A
O4124      H4134   0.990       .  S
O4125      H4138   0.990       .  S
C4126      C4583   1.445       .  S
Zr4149     O4150   2.443       .  S
Zr4149     O4151   2.471       .  S
Zr4149     O4152   2.409   1_545  S
Zr4149     O4155   2.371       .  S
Zr4149     O4157   2.370       .  S
Zr4149     O4158   2.376       .  S
Zr4149     O4159   2.411   1_545  S
Zr4149     O4160   2.418       .  S
O4150      H4206   0.991       .  S
O4150      H4214   0.990       .  S
O4151      C4171   1.291       .  A
O4152      C4173   1.277       .  A
O4153     Zr4163   2.455       .  S
O4153      C4172   1.288       .  A
O4154     Zr4162   2.441       .  S
O4154      C4173   1.282       .  A
O4155      C4172   1.273       .  A
O4156     Zr4164   2.488       .  S
O4156      C4171   1.291       .  A
O4157     Zr4162   2.406   1_545  S
O4157     Zr4164   2.383       .  S
O4158     Zr4163   2.402       .  S
O4158     Zr4164   2.366       .  S
O4158      H4193   0.966       .  S
O4159     Zr4162   2.404       .  S
O4159     Zr4179   2.405       .  S
O4159      H4196   0.965       .  S
O4160     Zr4163   2.392       .  S
O4160     Zr4179   2.415   1_545  S
Zr4161     O4186   2.445       .  S
Zr4161     O4180   2.471       .  S
Zr4161     O4188   2.397   1_565  S
Zr4161     O4176   2.378       .  S
Zr4161     O4167   2.406   1_565  S
Zr4161     O4168   2.417       .  S
Zr4161     O4169   2.362       .  S
Zr4161     O4170   2.369   1_565  S
Zr4162     O4181   2.439       .  S
Zr4162     O4174   2.435       .  S
Zr4162     O4175   2.448       .  S
Zr4162     O4168   2.393       .  S
Zr4162     O4169   2.391       .  S
Zr4163     O4165   2.436       .  S
Zr4163     O4187   2.437       .  S
Zr4163     O4189   2.463       .  S
Zr4163     O4167   2.390       .  S
Zr4163     O4170   2.393       .  S
Zr4164     O4190   2.436       .  S
Zr4164     O4191   2.435       .  S
Zr4164     O4166   2.436       .  S
Zr4164     O4167   2.415       .  S
Zr4164     O4168   2.425   1_545  S
O4165      H4202   0.990       .  S
O4166      H4197   0.990       .  S
O4166      H4211   0.990       .  S
O4168      H4194   0.966       .  S
O4169     Zr4179   2.368       .  S
O4170     Zr4179   2.382   1_545  S
O4170      H4195   0.966       .  S
C4171      C4568   1.519       .  S
C4172      C4564   1.463       .  S
C4173      C4581   1.427       .  S
O4174      H4210   0.990       .  S
O4175      C4177   1.287       .  A
O4176      C4177   1.275       .  A
C4177      C4633   1.466       .  S
O4178     Zr4179   2.439       .  S
O4178      H4207   0.990       .  S
Zr4179     O4182   2.438       .  S
Zr4179     O4183   2.439   1_565  S
Zr4179     O4184   2.466       .  S
O4180      C4185   1.292       .  A
O4181      H4198   0.990       .  S
O4181      H4213   0.990       .  S
O4182      H4199   0.990       .  S
O4183      H4203   0.990   1_545  S
O4183      H4212   0.990       .  S
O4184      C4185   1.287       .  A
C4185      C4649   1.508       .  S
O4186      H4205   0.990       .  S
O4186      H4209   0.990       .  S
O4187      H4201   0.990       .  S
O4187      H4208   0.990       .  S
O4188      C4192   1.277       .  A
O4189      C4192   1.288       .  A
O4190      H4200   0.990       .  S
O4191      H4204   0.990       .  S
C4192      C4561   1.437       .  S
Zr4215     O4216   2.446       .  S
Zr4215     O4221   2.386       .  S
Zr4215     O4224   2.391       .  S
Zr4215     O4225   2.416   1_545  S
Zr4215     O4226   2.424       .  S
O4216      H4272   0.991       .  S
O4216      H4280   0.991       .  S
O4217      C4237   1.296       .  A
O4218      C4239   1.280   1_545  A
O4219     Zr4229   2.397       .  S
O4219      C4238   1.271       .  A
O4220      C4239   1.287       .  A
O4221      C4238   1.270       .  A
O4222     Zr4230   2.479       .  S
O4222      C4237   1.290       .  A
O4223     Zr4230   2.381       .  S
O4224     Zr4229   2.423       .  S
O4224      H4259   0.965       .  S
O4225     Zr4228   2.397       .  S
O4225     Zr4245   2.418       .  S
O4225      H4262   0.966       .  S
O4226     Zr4229   2.401       .  S
O4226     Zr4245   2.400   1_545  S
Zr4227     O4252   2.446       .  S
Zr4227     O4246   2.443       .  S
Zr4227     O4254   2.417   1_565  S
Zr4227     O4242   2.386       .  S
Zr4227     O4233   2.395   1_565  S
Zr4227     O4234   2.415       .  S
Zr4227     O4235   2.373       .  S
Zr4227     O4236   2.371   1_565  S
Zr4228     O4247   2.437       .  S
Zr4228     O4234   2.400       .  S
Zr4228     O4235   2.389       .  S
Zr4229     O4231   2.436       .  S
Zr4229     O4253   2.439       .  S
Zr4229     O4255   2.445       .  S
Zr4229     O4233   2.384       .  S
Zr4229     O4236   2.378       .  S
Zr4230     O4257   2.435       .  S
Zr4230     O4232   2.435       .  S
O4231      H4268   0.990       .  S
O4232      H4263   0.990       .  S
O4232      H4277   0.990       .  S
O4235     Zr4245   2.366       .  S
O4236     Zr4245   2.390   1_545  S
O4236      H4261   0.966       .  S
C4237      C4553   1.527       .  S
C4238      C4557   1.435       .  S
C4239      C4580   1.449       .  S
O4240      H4276   0.990       .  S
O4242      C4243   1.276       .  A
C4243      C4646   1.472       .  S
O4244     Zr4245   2.440       .  S
O4244      H4273   0.990       .  S
Zr4245     O4248   2.437       .  S
Zr4245     O4249   2.439       .  S
Zr4245     O4250   2.454       .  S
O4246      C4251   1.287       .  A
O4247      H4279   0.990       .  S
O4248      H4265   0.990       .  S
O4249      H4269   0.990       .  S
O4249      H4278   0.990   1_565  S
O4250      C4251   1.286       .  A
C4251      C4637   1.487       .  S
O4252      H4271   0.990       .  S
O4252      H4275   0.990       .  S
O4253      H4267   0.990       .  S
O4253      H4274   0.990       .  S
O4254      C4258   1.280       .  A
O4255      C4258   1.284       .  A
O4257      H4270   0.990       .  S
C4258      C4562   1.438       .  S
Zr4281     O4283   2.438       .  S
Zr4281     O4287   2.422       .  S
Zr4281     O4289   2.396       .  S
Zr4281     O4290   2.403       .  S
Zr4281     O4291   2.413       .  S
Zr4281     O4292   2.394       .  S
O4282      H4338   0.989       .  S
O4282      H4346   0.989       .  S
O4283      C4303   1.287       .  A
O4284      C4305   1.284       .  A
O4285     Zr4295   2.402       .  S
O4285      C4304   1.270       .  A
O4286      C4305   1.286       .  A
O4287      C4304   1.269       .  A
O4288     Zr4296   2.480       .  S
O4288      C4303   1.293       .  A
O4289     Zr4294   2.414       .  S
O4289     Zr4296   2.380       .  S
O4290     Zr4295   2.377       .  S
O4290     Zr4296   2.358       .  S
O4290      H4325   0.965       .  S
O4291     Zr4294   2.425       .  S
O4291     Zr4311   2.352       .  S
O4291      H4328   0.962       .  S
O4292     Zr4295   2.364       .  S
O4292     Zr4311   2.341       .  S
Zr4293     O4318   2.440       .  S
Zr4293     O4312   2.470       .  S
Zr4293     O4320   2.416       .  S
Zr4293     O4308   2.410       .  S
Zr4293     O4299   2.414       .  S
Zr4293     O4300   2.419       .  S
Zr4293     O4301   2.376       .  S
Zr4293     O4302   2.374       .  S
Zr4294     O4313   2.438       .  S
Zr4294     O4306   2.434       .  S
Zr4294     O4307   2.512       .  S
Zr4294     O4300   2.393       .  S
Zr4294     O4301   2.393       .  S
Zr4295     O4297   2.442       .  S
Zr4295     O4319   2.442       .  S
Zr4295     O4321   2.397       .  S
Zr4295     O4299   2.389       .  S
Zr4295     O4302   2.363       .  S
Zr4296     O4322   2.436       .  S
Zr4296     O4323   2.435       .  S
Zr4296     O4298   2.436       .  S
Zr4296     O4299   2.413       .  S
Zr4296     O4300   2.425       .  S
O4297      H4334   0.989       .  S
O4298      H4329   0.990       .  S
O4298      H4343   0.990       .  S
O4300      H4326   0.966       .  S
O4301     Zr4311   2.385       .  S
O4302     Zr4311   2.382       .  S
O4302      H4327   0.965       .  S
C4304      C4558   1.446       .  S
C4305      C4551   1.438       .  S
O4306      H4342   0.990       .  S
O4307      C4309   1.299       .  A
O4308      C4309   1.281       .  A
C4309      C4625   1.509       .  S
O4310     Zr4311   2.442       .  S
O4310      H4339   0.990       .  S
Zr4311     O4314   2.437       .  S
Zr4311     O4315   2.437       .  S
Zr4311     O4316   2.361       .  S
O4312      C4317   1.287       .  A
O4313      H4330   0.990       .  S
O4313      H4345   0.990       .  S
O4314      H4331   0.990       .  S
O4315      H4335   0.990       .  S
O4315      H4344   0.990       .  S
O4316      C4317   1.264       .  A
C4317      C4602   1.465       .  S
O4318      H4337   0.990       .  S
O4318      H4341   0.990       .  S
O4319      H4333   0.989       .  S
O4319      H4340   0.990       .  S
O4320      C4324   1.281       .  A
O4321      C4324   1.274       .  A
O4322      H4332   0.990       .  S
O4323      H4336   0.990       .  S
C4324      C4549   1.408       .  S
Zr4347     O4348   2.424       .  S
Zr4347     O4349   2.462       .  S
Zr4347     O4350   2.443       .  S
Zr4347     O4353   2.434       .  S
Zr4347     O4355   2.401       .  S
Zr4347     O4356   2.392       .  S
Zr4347     O4357   2.428       .  S
Zr4347     O4358   2.400       .  S
O4348      H4404   0.989       .  S
O4348      H4412   0.984       .  S
O4349      C4369   1.289       .  A
O4350      C4371   1.280       .  A
O4351     Zr4361   2.393       .  S
O4351      C4370   1.267       .  A
O4352     Zr4360   2.441       .  S
O4352      C4371   1.281       .  A
O4353      C4370   1.277       .  A
O4354     Zr4362   2.518       .  S
O4354      C4369   1.300       .  A
O4355     Zr4360   2.426       .  S
O4355     Zr4362   2.371       .  S
O4356     Zr4361   2.394       .  S
O4356     Zr4362   2.343       .  S
O4356      H4391   0.965       .  S
O4357     Zr4360   2.453       .  S
O4357     Zr4377   2.348       .  S
O4357      H4394   0.962       .  S
O4358     Zr4361   2.377       .  S
O4358     Zr4377   2.367       .  S
Zr4359     O4384   2.435       .  S
Zr4359     O4378   2.464       .  S
Zr4359     O4386   2.419       .  S
Zr4359     O4374   2.420       .  S
Zr4359     O4365   2.416       .  S
Zr4359     O4366   2.424       .  S
Zr4359     O4367   2.407       .  S
Zr4359     O4368   2.420       .  S
Zr4360     O4379   2.438       .  S
Zr4360     O4372   2.434       .  S
Zr4360     O4373   2.533       .  S
Zr4360     O4366   2.395       .  S
Zr4360     O4367   2.373       .  S
Zr4361     O4363   2.438       .  S
Zr4361     O4385   2.441       .  S
Zr4361     O4387   2.391       .  S
Zr4361     O4365   2.391       .  S
Zr4361     O4368   2.374       .  S
Zr4362     O4388   2.436       .  S
Zr4362     O4389   2.434       .  S
Zr4362     O4364   2.435       .  S
Zr4362     O4365   2.423       .  S
Zr4362     O4366   2.437       .  S
O4363      H4400   0.990       .  S
O4364      H4395   0.990       .  S
O4364      H4409   0.990       .  S
O4366      H4392   0.966       .  S
O4367     Zr4377   2.400       .  S
O4368     Zr4377   2.388       .  S
O4368      H4393   0.967       .  S
C4369      C4613   1.526       .  S
C4370      C4594   1.454       .  S
C4371      C4545   1.432       .  S
O4372      H4408   0.990       .  S
O4373      C4375   1.304       .  A
O4374      C4375   1.282       .  A
C4375      C4567   1.524       .  S
O4376     Zr4377   2.439       .  S
O4376      H4405   0.990       .  S
Zr4377     O4380   2.439       .  S
Zr4377     O4381   2.436       .  S
Zr4377     O4382   2.329       .  S
O4378      C4383   1.267       .  A
O4379      H4396   0.990       .  S
O4379      H4411   0.990       .  S
O4380      H4397   0.990       .  S
O4381      H4401   0.990       .  S
O4381      H4410   0.990       .  S
O4382      C4383   1.248       .  A
C4383      C4589   1.462       .  S
O4384      H4403   0.990       .  S
O4384      H4407   0.990       .  S
O4385      H4399   0.990       .  S
O4385      H4406   0.990       .  S
O4386      C4390   1.281       .  A
O4387      C4390   1.273       .  A
O4388      H4398   0.990       .  S
O4389      H4402   0.990       .  S
C4390      C4548   1.411       .  S
Zr4413     O4414   2.428       .  S
Zr4413     O4415   2.464       .  S
Zr4413     O4416   2.439       .  S
Zr4413     O4419   2.413       .  S
Zr4413     O4421   2.396       .  S
Zr4413     O4422   2.384       .  S
Zr4413     O4423   2.418       .  S
Zr4413     O4424   2.386       .  S
O4414      H4470   0.978       .  S
O4414      H4478   0.991       .  S
O4415      C4435   1.289       .  A
O4416      C4437   1.279       .  A
O4417     Zr4427   2.379       .  S
O4417      C4436   1.275       .  A
O4418     Zr4426   2.456       .  S
O4418      C4437   1.284       .  A
O4419      C4436   1.276       .  A
O4420     Zr4428   2.522       .  S
O4420      C4435   1.301       .  A
O4421     Zr4426   2.427       .  S
O4421     Zr4428   2.372       .  S
O4422     Zr4427   2.382       .  S
O4422     Zr4428   2.352       .  S
O4422      H4457   0.965       .  S
O4423     Zr4426   2.439       .  S
O4423     Zr4443   2.345       .  S
O4423      H4460   0.962       .  S
O4424     Zr4427   2.371       .  S
O4424     Zr4443   2.356       .  S
Zr4425     O4450   2.439       .  S
Zr4425     O4444   2.483       .  S
Zr4425     O4452   2.416       .  S
Zr4425     O4440   2.410       .  S
Zr4425     O4431   2.423       .  S
Zr4425     O4432   2.426       .  S
Zr4425     O4433   2.373       .  S
Zr4425     O4434   2.374       .  S
Zr4426     O4445   2.438       .  S
Zr4426     O4438   2.434       .  S
Zr4426     O4439   2.541       .  S
Zr4426     O4432   2.391       .  S
Zr4426     O4433   2.385       .  S
Zr4427     O4429   2.435       .  S
Zr4427     O4451   2.436       .  S
Zr4427     O4453   2.394       .  S
Zr4427     O4431   2.378       .  S
Zr4427     O4434   2.363       .  S
Zr4428     O4454   2.436       .  S
Zr4428     O4455   2.434       .  S
Zr4428     O4430   2.435       .  S
Zr4428     O4431   2.420       .  S
Zr4428     O4432   2.449       .  S
O4429      H4466   0.990       .  S
O4430      H4461   0.990       .  S
O4430      H4475   0.990       .  S
O4432      H4458   0.966       .  S
O4433     Zr4443   2.391       .  S
O4434     Zr4443   2.370       .  S
O4434      H4459   0.965       .  S
C4435      C4554   1.528       .  S
C4436      C4572   1.433       .  S
C4437      C4552   1.440       .  S
O4438      H4474   0.990       .  S
O4439      C4441   1.305       .  A
O4440      C4441   1.280       .  A
C4441      C4606   1.524       .  S
O4442     Zr4443   2.442       .  S
O4442      H4471   0.990       .  S
Zr4443     O4446   2.436       .  S
Zr4443     O4447   2.438       .  S
Zr4443     O4448   2.366       .  S
O4444      C4449   1.290       .  A
O4445      H4462   0.990       .  S
O4445      H4477   0.990       .  S
O4446      H4463   0.990       .  S
O4447      H4467   0.990       .  S
O4447      H4476   0.990       .  S
O4448      C4449   1.266       .  A
C4449      C4629   1.475       .  S
O4450      H4469   0.990       .  S
O4450      H4473   0.990       .  S
O4451      H4465   0.990       .  S
O4451      H4472   0.990       .  S
O4452      C4456   1.281       .  A
O4453      C4456   1.274       .  A
O4454      H4464   0.990       .  S
O4455      H4468   0.990       .  S
C4456      C4550   1.408       .  S
Zr4479     O4481   2.454       .  S
Zr4479     O4485   2.429       .  S
Zr4479     O4487   2.399       .  S
Zr4479     O4488   2.394       .  S
Zr4479     O4489   2.409       .  S
Zr4479     O4490   2.399       .  S
O4480      H4536   0.985       .  S
O4480      H4544   0.990       .  S
O4481      C4501   1.291       .  A
O4482      C4503   1.283       .  A
O4483     Zr4493   2.400       .  S
O4483      C4502   1.271       .  A
O4484      C4503   1.281       .  A
O4485      C4502   1.277       .  A
O4486     Zr4494   2.500       .  S
O4486      C4501   1.298       .  A
O4487     Zr4492   2.411       .  S
O4487     Zr4494   2.370       .  S
O4488     Zr4493   2.386       .  S
O4488     Zr4494   2.344       .  S
O4488      H4523   0.964       .  S
O4489     Zr4492   2.426       .  S
O4489     Zr4509   2.351       .  S
O4489      H4526   0.962       .  S
O4490     Zr4493   2.377       .  S
O4490     Zr4509   2.370       .  S
Zr4491     O4516   2.442       .  S
Zr4491     O4510   2.470       .  S
Zr4491     O4518   2.408       .  S
Zr4491     O4506   2.396       .  S
Zr4491     O4497   2.413       .  S
Zr4491     O4498   2.417       .  S
Zr4491     O4499   2.372       .  S
Zr4491     O4500   2.374       .  S
Zr4492     O4511   2.438       .  S
Zr4492     O4504   2.434       .  S
Zr4492     O4505   2.500       .  S
Zr4492     O4498   2.386       .  S
Zr4492     O4499   2.387       .  S
Zr4493     O4495   2.438       .  S
Zr4493     O4517   2.440       .  S
Zr4493     O4519   2.402       .  S
Zr4493     O4497   2.387       .  S
Zr4493     O4500   2.361       .  S
Zr4494     O4520   2.435       .  S
Zr4494     O4521   2.435       .  S
Zr4494     O4496   2.435       .  S
Zr4494     O4497   2.415       .  S
Zr4494     O4498   2.426       .  S
O4495      H4532   0.990       .  S
O4496      H4527   0.990       .  S
O4496      H4541   0.990       .  S
O4498      H4524   0.966       .  S
O4499     Zr4509   2.388       .  S
O4500     Zr4509   2.375       .  S
O4500      H4525   0.965       .  S
C4502      C4617   1.452       .  S
C4503      C4546   1.429       .  S
O4504      H4540   0.990       .  S
O4505      C4507   1.296       .  A
O4506      C4507   1.279       .  A
C4507      C4585   1.498       .  S
O4508     Zr4509   2.441       .  S
O4508      H4537   0.990       .  S
Zr4509     O4512   2.436       .  S
Zr4509     O4513   2.438       .  S
Zr4509     O4514   2.367       .  S
O4510      C4515   1.287       .  A
O4511      H4528   0.990       .  S
O4511      H4543   0.990       .  S
O4512      H4529   0.990       .  S
O4513      H4533   0.991       .  S
O4513      H4542   0.990       .  S
O4514      C4515   1.266       .  A
C4515      C4563   1.468       .  S
O4516      H4535   0.990       .  S
O4516      H4539   0.990       .  S
O4517      H4531   0.990       .  S
O4517      H4538   0.990       .  S
O4518      C4522   1.279       .  A
O4519      C4522   1.276       .  A
O4520      H4530   0.990       .  S
O4521      H4534   0.990       .  S
C4522      C4547   1.409       .  S
C4545      C4546   1.205       .  T
C4547      C4548   1.191       .  T
C4549      C4550   1.190       .  T
C4551      C4552   1.210       .  T
C4553      C4554   1.372       .  D
C4553      H4555   1.086       .  S
C4554      H4556   1.086       .  S
C4557      C4558   1.342       .  D
C4557      H4559   1.086       .  S
C4558      H4560   1.081       .  S
C4561      C4562   1.208       .  T
C4563      C4564   1.356       .  D
C4563      H4565   1.086       .  S
C4564      H4566   1.087       .  S
C4567      C4568   1.370       .  D
C4567      H4569   1.085       .  S
C4568      H4570   1.087       .  S
C4571      C4572   1.341       .  D
C4571      H4573   1.083       .  S
C4572      H4574   1.088       .  S
C4575      C4576   1.356       .  D
C4576      H4578   1.087       .  S
C4579      C4580   1.214       .  T
C4581      C4582   1.202       .  T
C4583      C4584   1.211       .  T
C4585      C4586   1.358       .  D
C4585      H4587   1.086       .  S
C4586      H4588   1.088       .  S
C4589      C4590   1.350       .  D
C4589      H4591   1.087       .  S
C4590      H4592   1.083       .  S
C4593      C4594   1.340       .  D
C4593      H4595   1.083       .  S
C4594      H4596   1.087       .  S
C4597      C4598   1.360       .  D
C4598      H4600   1.087       .  S
C4601      C4602   1.356       .  D
C4601      H4603   1.087       .  S
C4602      H4604   1.086       .  S
C4605      C4606   1.371       .  D
C4605      H4607   1.087       .  S
C4606      H4608   1.085       .  S
C4609      C4610   1.223       .  T
C4611      C4612   1.209       .  T
C4613      C4614   1.370       .  D
C4613      H4615   1.086       .  S
C4614      H4616   1.086       .  S
C4617      C4618   1.339       .  D
C4617      H4619   1.085       .  S
C4618      H4620   1.080       .  S
C4621      C4622   1.206       .  T
C4623      C4624   1.208       .  T
C4625      C4626   1.362       .  D
C4625      H4627   1.085       .  S
C4626      H4628   1.087       .  S
C4629      C4630   1.358       .  D
C4629      H4631   1.086       .  S
C4630      H4632   1.087       .  S
C4633      C4634   1.352       .  D
C4633      H4635   1.086       .  S
C4634      H4636   1.087       .  S
C4637      C4638   1.356       .  D
C4637      H4639   1.088       .  S
C4638      H4640   1.086       .  S
C4641      C4642   1.208       .  T
C4643      C4644   1.187       .  T
C4645      C4646   1.356       .  D
C4646      H4648   1.087       .  S
C4649      C4650   1.367       .  D
C4649      H4651   1.087       .  S
C4653      C4654   1.349       .  D
C4653      H4655   1.087       .  S
C4654      H4656   1.087       .  S
C4657      C4658   1.351       .  D
C4657      H4659   1.087       .  S
C4658      H4660   1.086       .  S
C4661      C4662   1.202       .  T
C4663      C4664   1.362       .  D
C4663      H4665   1.086       .  S
C4664      H4666   1.086       .  S
C4667      C4668   1.346       .  D
C4667      H4669   1.083       .  S
C4668      H4670   1.089       .  S
C4671      C4672   1.212       .  T
C4673      C4674   1.199       .  T
C4675      C4676   1.207       .  T
C4677      C4678   1.345       .  D
C4677      H4679   1.088       .  S
C4678      H4680   1.088       .  S
C4681      C4682   1.362       .  D
C4681      H4683   1.086       .  S
C4682      H4684   1.087       .  S
C4685      C4686   1.364       .  D
C4685      H4687   1.086       .  S
C4689      C4690   1.371       .  D
C4689      H4691   1.087       .  S
C4693      C4694   1.337       .  D
C4693      H4695   1.086       .  S
C4694      H4696   1.086       .  S
C4697      C4698   1.352       .  D
C4697      H4699   1.086       .  S
C4698      H4700   1.087       .  S
C4701      C4702   1.206       .  T
C4703      C4704   1.189       .  T
C4705      C4706   1.339       .  D
C4705      H4707   1.084       .  S
C4706      H4708   1.088       .  S
C4709      C4710   1.361       .  D
C4709      H4711   1.087       .  S
C4710      H4712   1.086       .  S
C4713      C4714   1.360       .  D
C4713      H4715   1.086       .  S
C4714      H4716   1.086       .  S
C4717      C4718   1.375       .  D
C4717      H4719   1.085       .  S
C4718      H4720   1.087       .  S
C4721      C4722   1.352       .  D
C4721      H4723   1.085       .  S
C4722      H4724   1.087       .  S
C4725      C4726   1.363   1_556  D
C4725      H4727   1.085       .  S
C4726      H4728   1.088       .  S
C4729      C4730   1.184       .  T
C4731      C4732   1.214       .  T
C4733      C4734   1.210       .  T
C4735      C4736   1.187       .  T
C4737      C4738   1.339       .  D
C4737      H4739   1.087       .  S
C4738      H4740   1.083       .  S
C4741      C4742   1.351       .  D
C4741      H4743   1.086       .  S
C4742      H4744   1.087       .  S
C4745      C4746   1.354       .  D
C4745      H4747   1.086       .  S
C4746      H4748   1.086       .  S
C4749      C4750   1.361       .  D
C4749      H4751   1.087       .  S
C4750      H4752   1.086       .  S
C4753      C4754   1.192       .  T
C4755      C4756   1.207       .  T
C4757      C4758   1.344       .  D
C4757      H4759   1.084       .  S
C4758      H4760   1.086       .  S
C4761      C4762   1.371       .  D
C4761      H4763   1.086       .  S
C4762      H4764   1.086       .  S
C4765      C4766   1.358       .  D
C4765      H4767   1.087       .  S
C4766      H4768   1.086       .  S
C4769      C4770   1.356       .  D
C4769      H4771   1.085       .  S
C4770      H4772   1.088       .  S
C4773      C4774   1.358       .  D
C4773      H4775   1.087       .  S
C4774      H4776   1.086       .  S
C4777      C4778   1.213       .  T
C4779      C4780   1.355       .  D
C4779      H4781   1.087       .  S
C4780      H4782   1.086       .  S
C4783      H4785   1.088       .  S
C4784      H4786   1.085       .  S
C4787      C4788   1.348       .  D
C4787      H4789   1.087       .  S
C4788      H4790   1.087       .  S
C4791      C4792   1.199       .  T
C4793      C4794   1.364       .  D
C4793      H4795   1.087       .  S
C4794      H4796   1.086       .  S
C4797      C4798   1.350       .  D
C4797      H4799   1.085       .  S
C4798      H4800   1.086       .  S
C4801      C4802   1.353   1_554  D
C4801      H4803   1.087       .  S
C4802      H4804   1.086       .  S
C4805      C4806   1.348       .  D
C4805      H4807   1.087       .  S
C4806      H4808   1.087   1_655  S
C4809      C4810   1.211       .  T
C4811      C4812   1.205       .  T
C4813      C4814   1.343       .  D
C4813      H4815   1.087       .  S
C4814      H4816   1.088       .  S
C4817      C4818   1.368       .  D
C4817      H4819   1.086       .  S
C4818      H4820   1.086       .  S
C4821      C4822   1.364       .  D
C4821      H4823   1.085       .  S
C4822      H4824   1.087       .  S
C4825      C4826   1.355       .  D
C4825      H4827   1.087       .  S
C4826      H4828   1.086       .  S
C4829      C4830   1.356       .  D
C4829      H4831   1.086       .  S
C4830      H4832   1.087       .  S
C4833      C4834   1.352       .  D
C4833      H4835   1.086       .  S
C4834      H4836   1.088       .  S
C4837      C4838   1.346       .  D
C4837      H4839   1.088       .  S
C4838      H4840   1.088       .  S
C4841      C4842   1.352       .  D
C4841      H4843   1.087       .  S
C4842      H4844   1.086       .  S
C4845      C4846   1.358       .  D
C4845      H4847   1.087   1_455  S
C4849      H4851   1.085       .  S
C4850      H4852   1.087       .  S
C4853      C4854   1.183       .  T
C4855      C4856   1.209       .  T
C4857      C4858   1.350       .  D
C4857      H4859   1.087       .  S
C4858      H4860   1.087       .  S
C4861      C4862   1.364   1_554  D
C4861      H4863   1.086       .  S
C4862      H4864   1.086       .  S
