geometry optimzed in LAMMPS
_audit_creation_date              2020-11-30 
_audit_creation_method            'lammps2cif' 
_symmetry_space_group_name_H-M    'P1' 
_symmetry_Int_Tables_number       1 
_symmetry_cell_setting            triclinic 
loop_ 
_symmetry_equiv_pos_as_xyz 
  x,y,z 
_cell_length_a                    32.66309741 
_cell_length_b                    31.73049315192099 
_cell_length_c                    48.34424108443797 
_cell_angle_alpha                 89.68126005091837 
_cell_angle_beta                  90.16450639263125 
_cell_angle_gamma                 120.62205847593039 
loop_ 
_atom_site_label 
_atom_site_type_symbol 
_atom_site_fract_x 
_atom_site_fract_y 
_atom_site_fract_z 
_atom_site_charge 
C1          C  0.33131612  0.16139043  0.34889480     0.45300
H2          H  0.33323605  0.16253076  0.32598649    -0.03700
C3          C  0.32695558  0.15887094  0.40260562     0.45400
H4          H  0.32504730  0.15808072  0.42552894    -0.03700
C5          C  0.35513636  0.13475377  0.36216450    -0.17400
C6          C  0.35479965  0.21254686  0.36255232    -0.17100
C7          C  0.28005728  0.13435496  0.35981781    -0.17500
C8          C  0.35531301  0.13631150  0.39071991    -0.17500
C9          C  0.35240848  0.21115012  0.39090678    -0.17100
C10         C  0.27775212  0.13223037  0.38825119    -0.17400
C11         C  0.17076785  0.33983400  0.15187945     0.45300
H12         H  0.17151817  0.34092864  0.17482237    -0.03700
C13         C  0.16867404  0.33876406  0.09815863     0.45400
H14         H  0.16793806  0.33819972  0.07519221    -0.03700
C15         C  0.22078073  0.36573408  0.13886667    -0.17400
C16         C  0.14605826  0.28761049  0.13964219    -0.17100
C17         C  0.14495676  0.36495415  0.13935180    -0.17500
C18         C  0.21972139  0.36591826  0.11033994    -0.17500
C19         C  0.14352765  0.28702396  0.11116935    -0.17100
C20         C  0.14271238  0.36318717  0.11087964    -0.17400
Zn21       Zn  0.03151459  0.46657879  0.48629642     1.49700
Zn22       Zn  0.49894983  0.49971567  0.04062540     1.49400
Zn23       Zn  0.03529158  0.06836095  0.48634573     1.49100
Zn24       Zn  0.43470424  0.46700899  0.48614142     1.49500
O25         O  0.49995069  0.50047574  0.50001697    -1.84300
O26         O  0.05815844  0.44655641  0.01749094    -0.74900
O27         O  0.03391475  0.06933756  0.05543885    -0.74700
O28         O  0.08986910  0.08124021  0.46154011    -0.74200
O29         O  0.03327160  0.46640777  0.05534224    -0.74900
O30         O  0.08574112  0.00943522  0.46134510    -0.74500
O31         O  0.06284711  0.11593652  0.01779583    -0.75100
O32         O  0.42308956  0.01402991  0.46433109    -0.74500
O33         O  0.43109960  0.46326152  0.05560722    -0.75200
O34         O  0.49226666  0.08443928  0.46477578    -0.74600
O35         O  0.38704223  0.44130862  0.01735918    -0.75100
O36         O  0.42099311  0.40921706  0.46220707    -0.75000
O37         O  0.48748937  0.40651954  0.46452562    -0.74800
C38         C  0.05584848  0.44842125  0.04365918     0.77000
C39         C  0.05867621  0.11125167  0.04395455     0.77500
C40         C  0.10523052  0.05380066  0.45340241     0.76500
C41         C  0.44860943  0.05919684  0.45798157     0.76800
C42         C  0.39071470  0.44239684  0.04359038     0.78000
C43         C  0.44506085  0.38919408  0.45598971     0.77000
Zn44       Zn  0.03313018  0.06567739  0.26502556     1.49700
Zn45       Zn  0.03059052  0.46341868  0.26284578     1.49400
Zn46       Zn  0.43407437  0.46480853  0.26286933     1.49100
Zn47       Zn  0.00186223  0.50207596  0.20913854     1.49500
O48         O  0.99996269  0.49921894  0.24990266    -1.84300
O49         O  0.08888863  0.07625064  0.28879152    -0.74900
O50         O  0.48694029  0.40569209  0.28630093    -0.74700
O51         O  0.42034345  0.00791239  0.28703572    -0.74200
O52         O  0.08791920  0.00582546  0.28605235    -0.74900
O53         O  0.48850507  0.07912634  0.28767538    -0.74500
O54         O  0.41845863  0.40426021  0.28510671    -0.75100
O55         O  0.43551413  0.47291172  0.19296670    -0.74500
O56         O  0.05176981  0.43864156  0.23103721    -0.75200
O57         O  0.38960408  0.44511760  0.23040161    -0.74600
O58         O  0.03356113  0.46680197  0.19355932    -0.75100
O59         O  0.03986433  0.07144225  0.19550187    -0.75000
O60         O  0.05952229  0.11548798  0.23403334    -0.74800
C61         C  0.10634451  0.04942125  0.29491076     0.77000
C62         C  0.44338174  0.38593811  0.29298400     0.77500
C63         C  0.44487478  0.05246374  0.29451945     0.76500
C64         C  0.39457991  0.45136535  0.20430038     0.76800
C65         C  0.05132500  0.44341379  0.20491612     0.78000
C66         C  0.05972534  0.11252454  0.20776229     0.77000
C67         C  0.11979811  0.24185916  0.09370230    -0.06300
C68         C  0.14604781  0.23822122  0.07182436    -0.17400
C69         C  0.12795675  0.19560776  0.05592283     0.10900
C70         C  0.08175765  0.15571176  0.06133268    -0.06200
C71         C  0.05517548  0.15949500  0.08279957    -0.17400
C72         C  0.07308568  0.20209805  0.09871022     0.11000
S73         S  0.16656552  0.19366383  0.03001405    -0.32400
S74         S  0.03364975  0.20558151  0.12341052    -0.32400
H75         H  0.00035773  0.15508023  0.12490057     0.29000
H76         H  0.15068165  0.14361350  0.03360698     0.29000
H77         H  0.18191368  0.26806675  0.06786656     0.19600
H78         H  0.01923149  0.12954353  0.08631303     0.19600
C79         C  0.26319554  0.38613886  0.09252420    -0.06300
C80         C  0.28470736  0.35780118  0.08906908    -0.17400
C81         C  0.32615868  0.37470937  0.07312791     0.10900
C82         C  0.34685861  0.42119541  0.06028331    -0.06200
C83         C  0.32541999  0.44930248  0.06347266    -0.17400
C84         C  0.28455765  0.43296999  0.07956858     0.11000
S85         S  0.35079859  0.33536485  0.07017542    -0.32400
S86         S  0.26536980  0.47654730  0.08392853    -0.32400
H87         H  0.22941480  0.44857046  0.10262837     0.29000
H88         H  0.37478999  0.35432254  0.04500923     0.29000
H89         H  0.26911621  0.32218097  0.09891652     0.19600
H90         H  0.34154875  0.48519719  0.05381542     0.19600
C91         C  0.11780155  0.38219603  0.09316797    -0.06300
C92         C  0.14267520  0.41200512  0.07047106    -0.17400
C93         C  0.12446333  0.43575443  0.05469706     0.10900
C94         C  0.07892962  0.42802106  0.06084138    -0.06200
C95         C  0.05257089  0.39595510  0.08230918    -0.17400
C96         C  0.07043354  0.37138699  0.09764958     0.11000
S97         S  0.16181179  0.97648325  0.02761225    -0.32400
S98         S  0.02745252  0.32127670  0.11851016    -0.32400
H99         H  0.05482796  0.29932910  0.12171460     0.29000
H100        H  0.14677894  0.01060613  0.03067596     0.29000
H101        H  0.17678105  0.41710581  0.06484981     0.19600
H102        H  0.01639163  0.38746082  0.08594068     0.19600
C103        C  0.12793947  0.24326888  0.15776656    -0.06300
C104        C  0.10049545  0.24007185  0.18073937    -0.17400
C105        C  0.07712270  0.19774050  0.19676174     0.10900
C106        C  0.08311447  0.15777176  0.19099004    -0.06200
C107        C  0.11312948  0.16170588  0.16917453    -0.17400
C108        C  0.13672060  0.20442520  0.15304915     0.11000
S109        S  0.03734314  0.19601083  0.22288843    -0.32400
S110        S  0.18125792  0.20862003  0.12938974    -0.32400
H111        H  0.20870469  0.25996098  0.12902838     0.29000
H112        H  0.00153604  0.14749674  0.21723327     0.29000
H113        H  0.09566574  0.27009962  0.18587830     0.19600
H114        H  0.11961834  0.13198000  0.16533099     0.19600
C115        C  0.26549177  0.38740771  0.15595712    -0.06300
C116        C  0.30258772  0.43539827  0.15020103    -0.17400
C117        C  0.34526400  0.45740540  0.16523331     0.10900
C118        C  0.35118827  0.43133745  0.18711006    -0.06200
C119        C  0.31405241  0.38418035  0.19343118    -0.17400
C120        C  0.27170196  0.36177605  0.17821431     0.11000
S121        S  0.38965029  0.51939829  0.15619671    -0.32400
S122        S  0.22786349  0.29973435  0.18729684    -0.32400
H123        H  0.25080733  0.29437810  0.21055219     0.29000
H124        H  0.40550555  0.53442331  0.18340933     0.29000
H125        H  0.29797096  0.45669840  0.13437839     0.19600
H126        H  0.31889238  0.36433384  0.21018392     0.19600
C127        C  0.12307329  0.38674362  0.15707735    -0.06300
C128        C  0.08409969  0.35537970  0.17376725    -0.17400
C129        C  0.05889528  0.37239062  0.18873720     0.10900
C130        C  0.07332183  0.42244410  0.18754156    -0.06200
C131        C  0.11251123  0.45419714  0.17120348    -0.17400
C132        C  0.13811496  0.43714586  0.15660286     0.11000
S133        S  0.00708114  0.32782757  0.20762353    -0.32400
S134        S  0.19170298  0.48213886  0.13983166    -0.32400
H135        H  0.21757715  0.46014909  0.14872001     0.29000
H136        H  0.48175062  0.35263848  0.20547968     0.29000
H137        H  0.07041022  0.31657839  0.17333743     0.19600
H138        H  0.12464534  0.49299583  0.17088716     0.19600
C139        C  0.38301945  0.12221928  0.40931414    -0.06300
C140        C  0.36044876  0.09470056  0.43308946    -0.17400
C141        C  0.38141739  0.07478618  0.44963403     0.10900
C142        C  0.42676725  0.08295223  0.44261974    -0.06200
C143        C  0.45178780  0.11484889  0.42067184    -0.17400
C144        C  0.43102040  0.13575939  0.40448321     0.11000
S145        S  0.34892507  0.04059885  0.47986462    -0.32400
S146        S  0.46930452  0.18251736  0.38009934    -0.32400
H147        H  0.44425944  0.20763376  0.38020083     0.29000
H148        H  0.38931960  0.05675380  0.49675479     0.29000
H149        H  0.32613804  0.08857668  0.43907039     0.19600
H150        H  0.48780452  0.12367959  0.41616536     0.19600
C151        C  0.42258683  0.34409908  0.43911792    -0.06300
C152        C  0.37449663  0.30958830  0.44384474    -0.17400
C153        C  0.35104415  0.26555341  0.42908005     0.10900
C154        C  0.37605167  0.25567262  0.40876560    -0.06200
C155        C  0.42454080  0.28978444  0.40453811    -0.17400
C156        C  0.44780551  0.33394654  0.41907142     0.11000
S157        S  0.28880964  0.22380957  0.43573186    -0.32400
S158        S  0.50880109  0.37668679  0.40986540    -0.32400
H159        H  0.50441546  0.41846336  0.41164808     0.29000
H160        H  0.28289243  0.25095813  0.45660231     0.29000
H161        H  0.35530649  0.31716795  0.45936667     0.19600
H162        H  0.44430837  0.28257899  0.38923700     0.19600
C163        C  0.14755015  0.07351843  0.43520036    -0.06300
C164        C  0.17449143  0.05047289  0.43607699    -0.17400
C165        C  0.21538328  0.06715619  0.42015138     0.10900
C166        C  0.23226795  0.11014179  0.40402455    -0.06200
C167        C  0.20443774  0.13219342  0.40218309    -0.17400
C168        C  0.16206437  0.11404188  0.41719001     0.11000
S169        S  0.24018930  0.02808149  0.41928062    -0.32400
S170        S  0.12742121  0.14284025  0.41134401    -0.32400
H171        H  0.08365447  0.09838879  0.41030036     0.29000
H172        H  0.26268888  0.04573559  0.39390709     0.29000
H173        H  0.16317142  0.01833640  0.44896494     0.19600
H174        H  0.21571586  0.16370689  0.38879987     0.19600
C175        C  0.37630051  0.11133390  0.34475831    -0.06300
C176        C  0.40382342  0.13734205  0.32171239    -0.17400
C177        C  0.42616060  0.11907938  0.30507261     0.10900
C178        C  0.42169851  0.07345147  0.31133424    -0.06200
C179        C  0.39258259  0.04614285  0.33353859    -0.17400
C180        C  0.36938202  0.06403964  0.34987083     0.11000
S181        S  0.45735486  0.15477461  0.27519388    -0.32400
S182        S  0.32716050  0.02205781  0.37439572    -0.32400
H183        H  0.28899680  0.01800394  0.35866429     0.29000
H184        H  0.44317475  0.11424257  0.25779641     0.29000
H185        H  0.40774989  0.17206780  0.31620329     0.19600
H186        H  0.38712620  0.01009317  0.33790320     0.19600
C187        C  0.37773958  0.25849081  0.34599475    -0.06300
C188        C  0.41740780  0.26853576  0.33008118    -0.17400
C189        C  0.43857795  0.30852629  0.31202073     0.10900
C190        C  0.42143396  0.34149348  0.31077828    -0.06200
C191        C  0.38302120  0.33268694  0.32781113    -0.17400
C192        C  0.36089497  0.29170694  0.34526321     0.11000
S193        S  0.48554920  0.31336306  0.29028959    -0.32400
S194        S  0.31091095  0.28411455  0.36525727    -0.32400
H195        H  0.28798589  0.23317265  0.36855817     0.29000
H196        H  0.46785990  0.32360949  0.26619983     0.29000
H197        H  0.43218035  0.24503735  0.33173704     0.19600
H198        H  0.36985831  0.35788232  0.32748890     0.19600
C199        C  0.15008337  0.07002473  0.31181468    -0.06300
C200        C  0.18686817  0.11763619  0.30582617    -0.17400
C201        C  0.23034408  0.13887589  0.32001046     0.10900
C202        C  0.23708897  0.11223393  0.34140405    -0.06200
C203        C  0.20069760  0.06369530  0.34648599    -0.17400
C204        C  0.15722834  0.04275619  0.33245911     0.11000
S205        S  0.27584994  0.19985979  0.31016810    -0.32400
S206        S  0.11156864  0.98221556  0.34304990    -0.32400
H207        H  0.07381582  0.99118563  0.33998442     0.29000
H208        H  0.25118371  0.20714386  0.28854970     0.29000
H209        H  0.18160096  0.13797408  0.28954857     0.19600
H210        H  0.20556047  0.04208903  0.36206750     0.19600
C211        C  0.33131617  0.16139003  0.84889443     0.45300
H212        H  0.33323593  0.16253028  0.82598606    -0.03700
C213        C  0.32695620  0.15887102  0.90260523     0.45400
H214        H  0.32504807  0.15808126  0.92552856    -0.03700
C215        C  0.35513692  0.13475389  0.86216412    -0.17400
C216        C  0.35479916  0.21254646  0.86255181    -0.17100
C217        C  0.28005748  0.13435413  0.85981752    -0.17500
C218        C  0.35531381  0.13631178  0.89071958    -0.17500
C219        C  0.35240851  0.21115015  0.89090624    -0.17100
C220        C  0.27775264  0.13222937  0.88825095    -0.17400
C221        C  0.17076818  0.33983428  0.65187942     0.45300
H222        H  0.17151816  0.34092914  0.67482233    -0.03700
C223        C  0.16867533  0.33876414  0.59815861     0.45400
H224        H  0.16793983  0.33819994  0.57519217    -0.03700
C225        C  0.22078118  0.36573354  0.63886707    -0.17400
C226        C  0.14605817  0.28761070  0.63964221    -0.17100
C227        C  0.14495814  0.36495522  0.63935138    -0.17500
C228        C  0.21972248  0.36591745  0.61034033    -0.17500
C229        C  0.14352775  0.28702404  0.61116934    -0.17100
C230        C  0.14271410  0.36318803  0.61087920    -0.17400
Zn231      Zn  0.03151456  0.46657864  0.98629630     1.49700
Zn232      Zn  0.49894982  0.49971505  0.54062550     1.49400
Zn233      Zn  0.03529167  0.06836085  0.98634534     1.49100
Zn234      Zn  0.43470399  0.46700880  0.98614185     1.49500
O235        O  0.49995087  0.50047585  0.00001690    -1.84300
O236        O  0.05815997  0.44655814  0.51749099    -0.74900
O237        O  0.03391460  0.06933663  0.55543952    -0.74700
O238        O  0.08986864  0.08123927  0.96153905    -0.74200
O239        O  0.03327025  0.46640601  0.55534236    -0.74900
O240        O  0.08574237  0.00943507  0.96134583    -0.74500
O241        O  0.06284557  0.11593572  0.51779649    -0.75100
O242        O  0.42308797  0.01402945  0.96433255    -0.74500
O243        O  0.43109980  0.46326226  0.55560688    -0.75200
O244        O  0.49226556  0.08443841  0.96477607    -0.74600
O245        O  0.38704233  0.44131037  0.51735882    -0.75100
O246        O  0.42099304  0.40921810  0.96220647    -0.75000
O247        O  0.48748935  0.40652060  0.96452440    -0.74800
C248        C  0.05584872  0.44842131  0.54365923     0.77000
C249        C  0.05867521  0.11125083  0.54395520     0.77500
C250        C  0.10523110  0.05380003  0.95340234     0.76500
C251        C  0.44860787  0.05919617  0.95798268     0.76800
C252        C  0.39071496  0.44239843  0.54359004     0.78000
C253        C  0.44506084  0.38919545  0.95598849     0.77000
Zn254      Zn  0.03312950  0.06567705  0.76502492     1.49700
Zn255      Zn  0.03059067  0.46341853  0.76284603     1.49400
Zn256      Zn  0.43407450  0.46480789  0.76286922     1.49100
Zn257      Zn  0.00186211  0.50207513  0.70913838     1.49500
O258        O  0.99996272  0.49921844  0.74990250    -1.84300
O259        O  0.08888847  0.07625121  0.78879115    -0.74900
O260        O  0.48693990  0.40569076  0.78630047    -0.74700
O261        O  0.42034271  0.00791105  0.78703536    -0.74200
O262        O  0.08791751  0.00582504  0.78605377    -0.74900
O263        O  0.48850350  0.07912569  0.78767415    -0.74500
O264        O  0.41845840  0.40425919  0.78510611    -0.75100
O265        O  0.43551399  0.47291125  0.69296675    -0.74500
O266        O  0.05177230  0.43864322  0.73103764    -0.75200
O267        O  0.38960452  0.44511787  0.73040187    -0.74600
O268        O  0.03356171  0.46680148  0.69355953    -0.75100
O269        O  0.03986266  0.07144123  0.69550114    -0.75000
O270        O  0.05951992  0.11548725  0.73403243    -0.74800
C271        C  0.10634344  0.04942133  0.79491145     0.77000
C272        C  0.44338126  0.38593679  0.79298333     0.77500
C273        C  0.44487339  0.05246273  0.79451847     0.76500
C274        C  0.39458000  0.45136554  0.70430068     0.76800
C275        C  0.05132689  0.44341467  0.70491650     0.78000
C276        C  0.05972269  0.11252367  0.70776138     0.77000
C277        C  0.11979731  0.24185911  0.59370229    -0.06300
C278        C  0.14604636  0.23822109  0.57182395    -0.17400
C279        C  0.12795507  0.19560741  0.55592263     0.10900
C280        C  0.08175655  0.15571106  0.56133319    -0.06200
C281        C  0.05517488  0.15949429  0.58280038    -0.17400
C282        C  0.07308504  0.20209777  0.59871070     0.11000
S283        S  0.16656292  0.19366347  0.53001318    -0.32400
S284        S  0.03364963  0.20558114  0.62341156    -0.32400
H285        H  0.00035246  0.15508093  0.62489812     0.29000
H286        H  0.15068136  0.14361390  0.53360746     0.29000
H287        H  0.18191199  0.26806661  0.56786575     0.19600
H288        H  0.01923132  0.12954229  0.58631435     0.19600
C289        C  0.26319705  0.38613888  0.59252493    -0.06300
C290        C  0.28471005  0.35780224  0.58906990    -0.17400
C291        C  0.32616067  0.37471092  0.57312795     0.10900
C292        C  0.34685920  0.42119665  0.56028318    -0.06200
C293        C  0.32542018  0.44930317  0.56347305    -0.17400
C294        C  0.28455801  0.43296983  0.57956919     0.11000
S295        S  0.35080141  0.33536737  0.57017409    -0.32400
S296        S  0.26536862  0.47654589  0.58392903    -0.32400
H297        H  0.22941364  0.44856829  0.60262866     0.29000
H298        H  0.37478417  0.35432058  0.54500506     0.29000
H299        H  0.26911999  0.32218234  0.59891756     0.19600
H300        H  0.34154817  0.48519782  0.55381585     0.19600
C301        C  0.11780292  0.38219628  0.59316734    -0.06300
C302        C  0.14267591  0.41200495  0.57047017    -0.17400
C303        C  0.12446396  0.43575477  0.55469668     0.10900
C304        C  0.07893028  0.42802134  0.56084132    -0.06200
C305        C  0.05257201  0.39595533  0.58230919    -0.17400
C306        C  0.07043504  0.37138729  0.59764930     0.11000
S307        S  0.16181255  0.97648526  0.52761237    -0.32400
S308        S  0.02745457  0.32127660  0.61850981    -0.32400
H309        H  0.05482996  0.29932870  0.62171294     0.29000
H310        H  0.14678044  0.01060845  0.53067787     0.29000
H311        H  0.17678154  0.41710535  0.56484853     0.19600
H312        H  0.01639273  0.38746092  0.58594097     0.19600
C313        C  0.12793909  0.24326911  0.65776657    -0.06300
C314        C  0.10049633  0.24007289  0.68073988    -0.17400
C315        C  0.07712243  0.19774112  0.69676185     0.10900
C316        C  0.08311139  0.15777088  0.69098903    -0.06200
C317        C  0.11312483  0.16170402  0.66917283    -0.17400
C318        C  0.13671780  0.20442407  0.65304823     0.11000
S319        S  0.03734513  0.19601326  0.72288950    -0.32400
S320        S  0.18125476  0.20861794  0.62938885    -0.32400
H321        H  0.20870361  0.25995884  0.62902870     0.29000
H322        H  0.00153683  0.14749941  0.71723498     0.29000
H323        H  0.09566845  0.27010163  0.68587952     0.19600
H324        H  0.11961168  0.13197708  0.66532846     0.19600
C325        C  0.26549168  0.38740758  0.65595792    -0.06300
C326        C  0.30258743  0.43539811  0.65020172    -0.17400
C327        C  0.34526383  0.45740538  0.66523376     0.10900
C328        C  0.35118808  0.43133783  0.68711076    -0.06200
C329        C  0.31405190  0.38418118  0.69343247    -0.17400
C330        C  0.27170188  0.36177605  0.67821521     0.11000
S331        S  0.38965022  0.51939785  0.65619644    -0.32400
S332        S  0.22786268  0.29973459  0.68729807    -0.32400
H333        H  0.25082908  0.29435903  0.71053589     0.29000
H334        H  0.40550648  0.53442368  0.68340881     0.29000
H335        H  0.29797058  0.45669797  0.63437894     0.19600
H336        H  0.31889105  0.36433599  0.71018635     0.19600
C337        C  0.12307452  0.38674476  0.65707676    -0.06300
C338        C  0.08410116  0.35538071  0.67376676    -0.17400
C339        C  0.05889688  0.37239154  0.68873697     0.10900
C340        C  0.07332403  0.42244520  0.68754199    -0.06200
C341        C  0.11251324  0.45419841  0.67120383    -0.17400
C342        C  0.13811605  0.43714699  0.65660236     0.11000
S343        S  0.00708179  0.32782800  0.70762239    -0.32400
S344        S  0.19170249  0.48213998  0.63982988    -0.32400
H345        H  0.21757845  0.46015274  0.64871925     0.29000
H346        H  0.48175187  0.35263979  0.70547913     0.29000
H347        H  0.07041179  0.31657938  0.67333678     0.19600
H348        H  0.12464744  0.49299703  0.67088769     0.19600
C349        C  0.38301935  0.12221867  0.90931401    -0.06300
C350        C  0.36044856  0.09470144  0.93308979    -0.17400
C351        C  0.38141624  0.07478646  0.94963472     0.10900
C352        C  0.42676578  0.08295136  0.94262062    -0.06200
C353        C  0.45178643  0.11484649  0.92067219    -0.17400
C354        C  0.43101973  0.13575698  0.90448302     0.11000
S355        S  0.34892269  0.04059924  0.97986508    -0.32400
S356        S  0.46930443  0.18251335  0.88009861    -0.32400
H357        H  0.44426176  0.20763232  0.88020068     0.29000
H358        H  0.38931656  0.05675087  0.99675536     0.29000
H359        H  0.32613847  0.08857916  0.93907083     0.19600
H360        H  0.48780274  0.12367598  0.91616571     0.19600
C361        C  0.42258663  0.34410072  0.93911633    -0.06300
C362        C  0.37449637  0.30958996  0.94384308    -0.17400
C363        C  0.35104430  0.26555416  0.92907916     0.10900
C364        C  0.37605172  0.25567326  0.90876469    -0.06200
C365        C  0.42454072  0.28978548  0.90453692    -0.17400
C366        C  0.44780538  0.33394790  0.91907000     0.11000
S367        S  0.28880984  0.22381026  0.93573111    -0.32400
S368        S  0.50880095  0.37668822  0.90986401    -0.32400
H369        H  0.50441520  0.41846472  0.91164667     0.29000
H370        H  0.28290467  0.25093567  0.95662111     0.29000
H371        H  0.35530561  0.31717058  0.95936410     0.19600
H372        H  0.44430837  0.28257985  0.88923585     0.19600
C373        C  0.14755099  0.07351752  0.93520041    -0.06300
C374        C  0.17449261  0.05047232  0.93607745    -0.17400
C375        C  0.21538447  0.06715540  0.92015183     0.10900
C376        C  0.23226870  0.11014050  0.90402449    -0.06200
C377        C  0.20443833  0.13219177  0.90218279    -0.17400
C378        C  0.16206506  0.11404045  0.91718965     0.11000
S379        S  0.24019093  0.02808110  0.91928166    -0.32400
S380        S  0.12742176  0.14283834  0.91134289    -0.32400
H381        H  0.08365554  0.09838645  0.91029831     0.29000
H382        H  0.26268857  0.04573369  0.89390751     0.29000
H383        H  0.16317277  0.01833615  0.94896576     0.19600
H384        H  0.21571628  0.16370496  0.88879928     0.19600
C385        C  0.37630022  0.11133346  0.84475773    -0.06300
C386        C  0.40382340  0.13734179  0.82171194    -0.17400
C387        C  0.42616031  0.11907899  0.80507208     0.10900
C388        C  0.42169673  0.07345024  0.81133307    -0.06200
C389        C  0.39257989  0.04614115  0.83353699    -0.17400
C390        C  0.36938051  0.06403858  0.84986975     0.11000
S391        S  0.45735694  0.15477570  0.77519431    -0.32400
S392        S  0.32715995  0.02205740  0.87439519    -0.32400
H393        H  0.28899568  0.01800269  0.85866400     0.29000
H394        H  0.44317512  0.11424441  0.75779596     0.29000
H395        H  0.40775071  0.17206795  0.81620317     0.19600
H396        H  0.38712255  0.01009090  0.83790120     0.19600
C397        C  0.37773870  0.25849011  0.84599416    -0.06300
C398        C  0.41740702  0.26853490  0.83008079    -0.17400
C399        C  0.43857723  0.30852511  0.81202022     0.10900
C400        C  0.42143306  0.34149210  0.81077745    -0.06200
C401        C  0.38302016  0.33268579  0.82781016    -0.17400
C402        C  0.36089402  0.29170618  0.84526249     0.11000
S403        S  0.48554918  0.31336196  0.79028968    -0.32400
S404        S  0.31091048  0.28411447  0.86525685    -0.32400
H405        H  0.28798550  0.23317266  0.86855822     0.29000
H406        H  0.46786071  0.32360840  0.76619958     0.29000
H407        H  0.43217984  0.24503683  0.83173707     0.19600
H408        H  0.36985731  0.35788121  0.82748776     0.19600
C409        C  0.15008242  0.07002484  0.81181539    -0.06300
C410        C  0.18686735  0.11763612  0.80582669    -0.17400
C411        C  0.23034362  0.13887561  0.82001060     0.10900
C412        C  0.23708901  0.11223332  0.84140384    -0.06200
C413        C  0.20069761  0.06369477  0.84648584    -0.17400
C414        C  0.15722780  0.04275613  0.83245959     0.11000
S415        S  0.27584927  0.19985949  0.81016802    -0.32400
S416        S  0.11156776  0.98221624  0.84305116    -0.32400
H417        H  0.07381609  0.99118847  0.83998721     0.29000
H418        H  0.25118124  0.20714521  0.78855133     0.29000
H419        H  0.18159997  0.13797403  0.78954916     0.19600
H420        H  0.20556077  0.04208832  0.86206716     0.19600
C421        C  0.33131619  0.66139049  0.34889482     0.45300
H422        H  0.33323612  0.66253083  0.32598650    -0.03700
C423        C  0.32695556  0.65887089  0.40260563     0.45400
H424        H  0.32504725  0.65808065  0.42552895    -0.03700
C425        C  0.35513635  0.63475374  0.36216451    -0.17400
C426        C  0.35479970  0.71254693  0.36255238    -0.17100
C427        C  0.28005733  0.63435499  0.35981780    -0.17500
C428        C  0.35531294  0.63631141  0.39071992    -0.17500
C429        C  0.35240853  0.71115010  0.39090684    -0.17100
C430        C  0.27775213  0.63223038  0.38825118    -0.17400
C431        C  0.17076785  0.83983389  0.15187947     0.45300
H432        H  0.17151819  0.84092850  0.17482238    -0.03700
C433        C  0.16867400  0.83876405  0.09815865     0.45400
H434        H  0.16793794  0.83819977  0.07519224    -0.03700
C435        C  0.22078072  0.86573403  0.13886667    -0.17400
C436        C  0.14605834  0.78761040  0.13964219    -0.17100
C437        C  0.14495669  0.86495400  0.13935186    -0.17500
C438        C  0.21972137  0.86591827  0.11033994    -0.17500
C439        C  0.14352769  0.78702393  0.11116935    -0.17100
C440        C  0.14271230  0.86318710  0.11087970    -0.17400
Zn441      Zn  0.03151470  0.96657884  0.48629641     1.49700
Zn442      Zn  0.49894986  0.99971563  0.04062540     1.49400
Zn443      Zn  0.03529153  0.56836102  0.48634572     1.49100
Zn444      Zn  0.43470419  0.96700906  0.48614142     1.49500
O445        O  0.49995062  0.00047569  0.50001699    -1.84300
O446        O  0.05815864  0.94655659  0.01749096    -0.74900
O447        O  0.03391481  0.56933758  0.05543888    -0.74700
O448        O  0.08986911  0.58124007  0.46154012    -0.74200
O449        O  0.03327165  0.96640784  0.05534224    -0.74900
O450        O  0.08574112  0.50943506  0.46134512    -0.74500
O451        O  0.06284714  0.61593647  0.01779583    -0.75100
O452        O  0.42308956  0.51402987  0.46433108    -0.74500
O453        O  0.43109954  0.96326158  0.05560719    -0.75200
O454        O  0.49226663  0.58443928  0.46477580    -0.74600
O455        O  0.38704219  0.94130849  0.01735913    -0.75100
O456        O  0.42099313  0.90921717  0.46220701    -0.75000
O457        O  0.48748933  0.90651953  0.46452561    -0.74800
C458        C  0.05584862  0.94842142  0.04365920     0.77000
C459        C  0.05867624  0.61125167  0.04395454     0.77500
C460        C  0.10523053  0.55380051  0.45340243     0.76500
C461        C  0.44860942  0.55919684  0.45798158     0.76800
C462        C  0.39071464  0.94239682  0.04359034     0.78000
C463        C  0.44506083  0.88919411  0.45598969     0.77000
Zn464      Zn  0.03313036  0.56567752  0.26502559     1.49700
Zn465      Zn  0.03059061  0.96341876  0.26284578     1.49400
Zn466      Zn  0.43407429  0.96480844  0.26286933     1.49100
Zn467      Zn  0.00186239  0.00207605  0.20913852     1.49500
O468        O  0.99996264  0.99921884  0.24990266    -1.84300
O469        O  0.08888877  0.57625079  0.28879164    -0.74900
O470        O  0.48694034  0.90569197  0.28630091    -0.74700
O471        O  0.42034351  0.50791240  0.28703574    -0.74200
O472        O  0.08791929  0.50582557  0.28605229    -0.74900
O473        O  0.48850509  0.57912637  0.28767544    -0.74500
O474        O  0.41845868  0.90426014  0.28510669    -0.75100
O475        O  0.43551422  0.97291190  0.19296671    -0.74500
O476        O  0.05176982  0.93864161  0.23103722    -0.75200
O477        O  0.38960413  0.94511749  0.23040159    -0.74600
O478        O  0.03356132  0.96680211  0.19355929    -0.75100
O479        O  0.03986416  0.57144216  0.19550191    -0.75000
O480        O  0.05952249  0.61548804  0.23403334    -0.74800
C481        C  0.10634465  0.54942134  0.29491076     0.77000
C482        C  0.44338178  0.88593805  0.29298400     0.77500
C483        C  0.44487479  0.55246375  0.29451947     0.76500
C484        C  0.39457997  0.95136536  0.20430038     0.76800
C485        C  0.05132505  0.94341382  0.20491612     0.78000
C486        C  0.05972535  0.61252449  0.20776229     0.77000
C487        C  0.11979807  0.74185914  0.09370228    -0.06300
C488        C  0.14604783  0.73822120  0.07182434    -0.17400
C489        C  0.12795675  0.69560771  0.05592283     0.10900
C490        C  0.08175761  0.65571181  0.06133264    -0.06200
C491        C  0.05517538  0.65949511  0.08279947    -0.17400
C492        C  0.07308559  0.70209810  0.09871017     0.11000
S493        S  0.16656555  0.69366368  0.03001408    -0.32400
S494        S  0.03364963  0.70558148  0.12341052    -0.32400
H495        H  0.00035705  0.65508029  0.12490013     0.29000
H496        H  0.15068156  0.64361331  0.03360693     0.29000
H497        H  0.18191364  0.76806663  0.06786655     0.19600
H498        H  0.01923138  0.62954366  0.08631290     0.19600
C499        C  0.26319549  0.88613882  0.09252418    -0.06300
C500        C  0.28470732  0.85780113  0.08906905    -0.17400
C501        C  0.32615856  0.87470925  0.07312781     0.10900
C502        C  0.34685853  0.92119535  0.06028327    -0.06200
C503        C  0.32541995  0.94930243  0.06347267    -0.17400
C504        C  0.28455761  0.93296996  0.07956856     0.11000
S505        S  0.35079839  0.83536469  0.07017520    -0.32400
S506        S  0.26536994  0.97654740  0.08392856    -0.32400
H507        H  0.22941482  0.94857060  0.10262834     0.29000
H508        H  0.37478926  0.85432208  0.04500883     0.29000
H509        H  0.26911625  0.82218093  0.09891652     0.19600
H510        H  0.34154877  0.98519722  0.05381548     0.19600
C511        C  0.11780157  0.88219612  0.09316806    -0.06300
C512        C  0.14267516  0.91200508  0.07047111    -0.17400
C513        C  0.12446342  0.93575452  0.05469713     0.10900
C514        C  0.07892971  0.92802119  0.06084142    -0.06200
C515        C  0.05257086  0.89595510  0.08230915    -0.17400
C516        C  0.07043356  0.87138710  0.09764964     0.11000
S517        S  0.16181153  0.47648300  0.02761207    -0.32400
S518        S  0.02745267  0.82127690  0.11851033    -0.32400
H519        H  0.05482796  0.79932909  0.12171460     0.29000
H520        H  0.14677891  0.51060604  0.03067594     0.29000
H521        H  0.17678106  0.91710568  0.06484983     0.19600
H522        H  0.01639157  0.88746077  0.08594056     0.19600
C523        C  0.12793954  0.74326875  0.15776653    -0.06300
C524        C  0.10049554  0.74007175  0.18073934    -0.17400
C525        C  0.07712280  0.69774044  0.19676173     0.10900
C526        C  0.08311448  0.65777165  0.19099000    -0.06200
C527        C  0.11312941  0.66170568  0.16917446    -0.17400
C528        C  0.13672063  0.70442505  0.15304909     0.11000
S529        S  0.03734333  0.69601094  0.22288844    -0.32400
S530        S  0.18125787  0.70861986  0.12938961    -0.32400
H531        H  0.20870471  0.75996081  0.12902828     0.29000
H532        H  0.00153619  0.64749684  0.21723336     0.29000
H533        H  0.09566582  0.77009952  0.18587825     0.19600
H534        H  0.11961810  0.63197972  0.16533087     0.19600
C535        C  0.26549176  0.88740758  0.15595711    -0.06300
C536        C  0.30258769  0.93539816  0.15020102    -0.17400
C537        C  0.34526393  0.95740531  0.16523334     0.10900
C538        C  0.35118829  0.93133740  0.18711007    -0.06200
C539        C  0.31405245  0.88418023  0.19343116    -0.17400
C540        C  0.27170196  0.86177592  0.17821429     0.11000
S541        S  0.38965013  0.01939818  0.15619671    -0.32400
S542        S  0.22786337  0.79973428  0.18729685    -0.32400
H543        H  0.25080710  0.79437803  0.21055226     0.29000
H544        H  0.40550536  0.03442325  0.18340931     0.29000
H545        H  0.29797096  0.95669824  0.13437839     0.19600
H546        H  0.31889243  0.86433370  0.21018387     0.19600
C547        C  0.12307327  0.88674349  0.15707742    -0.06300
C548        C  0.08409965  0.85537959  0.17376728    -0.17400
C549        C  0.05889528  0.87239054  0.18873724     0.10900
C550        C  0.07332182  0.92244403  0.18754159    -0.06200
C551        C  0.11251116  0.95419702  0.17120345    -0.17400
C552        C  0.13811493  0.93714573  0.15660290     0.11000
S553        S  0.00708118  0.82782747  0.20762354    -0.32400
S554        S  0.19170309  0.98213875  0.13983183    -0.32400
H555        H  0.21757712  0.96014876  0.14872007     0.29000
H556        H  0.48175041  0.85263836  0.20547953     0.29000
H557        H  0.07041015  0.81657826  0.17333743     0.19600
H558        H  0.12464526  0.99299572  0.17088705     0.19600
C559        C  0.38301940  0.62221922  0.40931414    -0.06300
C560        C  0.36044879  0.59470062  0.43308951    -0.17400
C561        C  0.38141745  0.57478628  0.44963408     0.10900
C562        C  0.42676724  0.58295225  0.44261974    -0.06200
C563        C  0.45178778  0.61484887  0.42067179    -0.17400
C564        C  0.43102032  0.63575934  0.40448318     0.11000
S565        S  0.34892513  0.54059873  0.47986460    -0.32400
S566        S  0.46930444  0.68251749  0.38009937    -0.32400
H567        H  0.44425927  0.70763380  0.38020089     0.29000
H568        H  0.38931964  0.55675401  0.49675483     0.29000
H569        H  0.32613802  0.58857673  0.43907047     0.19600
H570        H  0.48780438  0.62367950  0.41616529     0.19600
C571        C  0.42258677  0.84409908  0.43911794    -0.06300
C572        C  0.37449652  0.80958836  0.44384470    -0.17400
C573        C  0.35104406  0.76555341  0.42908005     0.10900
C574        C  0.37605167  0.75567256  0.40876568    -0.06200
C575        C  0.42454079  0.78978439  0.40453820    -0.17400
C576        C  0.44780551  0.83394648  0.41907149     0.11000
S577        S  0.28880953  0.72380953  0.43573184    -0.32400
S578        S  0.50880110  0.87668664  0.40986544    -0.32400
H579        H  0.50441555  0.91846325  0.41164808     0.29000
H580        H  0.28289247  0.75095769  0.45660261     0.29000
H581        H  0.35530629  0.81716809  0.45936656     0.19600
H582        H  0.44430837  0.78257896  0.38923706     0.19600
C583        C  0.14755016  0.57351827  0.43520036    -0.06300
C584        C  0.17449152  0.55047283  0.43607700    -0.17400
C585        C  0.21538338  0.56715615  0.42015141     0.10900
C586        C  0.23226797  0.61014172  0.40402454    -0.06200
C587        C  0.20443770  0.63219328  0.40218308    -0.17400
C588        C  0.16206434  0.61404171  0.41719000     0.11000
S589        S  0.24018937  0.52808141  0.41928060    -0.32400
S590        S  0.12742123  0.64284014  0.41134402    -0.32400
H591        H  0.08365441  0.59838874  0.41030041     0.29000
H592        H  0.26268896  0.54573553  0.39390708     0.29000
H593        H  0.16317151  0.51833628  0.44896498     0.19600
H594        H  0.21571579  0.66370674  0.38879986     0.19600
C595        C  0.37630052  0.61133386  0.34475833    -0.06300
C596        C  0.40382338  0.63734203  0.32171238    -0.17400
C597        C  0.42616057  0.61907936  0.30507259     0.10900
C598        C  0.42169844  0.57345143  0.31133422    -0.06200
C599        C  0.39258257  0.54614281  0.33353857    -0.17400
C600        C  0.36938206  0.56403960  0.34987086     0.11000
S601        S  0.45735502  0.65477473  0.27519393    -0.32400
S602        S  0.32716056  0.52205769  0.37439572    -0.32400
H603        H  0.28899684  0.51800380  0.35866431     0.29000
H604        H  0.44317496  0.61424275  0.25779642     0.29000
H605        H  0.40774981  0.67206770  0.31620327     0.19600
H606        H  0.38712616  0.51009309  0.33790315     0.19600
C607        C  0.37773964  0.75849097  0.34599485    -0.06300
C608        C  0.41740794  0.76853592  0.33008134    -0.17400
C609        C  0.43857810  0.80852642  0.31202087     0.10900
C610        C  0.42143405  0.84149353  0.31077834    -0.06200
C611        C  0.38302126  0.83268705  0.32781116    -0.17400
C612        C  0.36089500  0.79170708  0.34526327     0.11000
S613        S  0.48554916  0.81336292  0.29028963    -0.32400
S614        S  0.31091091  0.78411471  0.36525726    -0.32400
H615        H  0.28798591  0.73317282  0.36855818     0.29000
H616        H  0.46785978  0.82360927  0.26619988     0.29000
H617        H  0.43218041  0.74503754  0.33173719     0.19600
H618        H  0.36985838  0.85788245  0.32748887     0.19600
C619        C  0.15008354  0.57002475  0.31181464    -0.06300
C620        C  0.18686828  0.61763628  0.30582620    -0.17400
C621        C  0.23034416  0.63887599  0.32001050     0.10900
C622        C  0.23708905  0.61223394  0.34140403    -0.06200
C623        C  0.20069771  0.56369524  0.34648592    -0.17400
C624        C  0.15722850  0.54275610  0.33245900     0.11000
S625        S  0.27585007  0.69985990  0.31016812    -0.32400
S626        S  0.11156874  0.48221537  0.34304969    -0.32400
H627        H  0.07381595  0.49118553  0.33998437     0.29000
H628        H  0.25118401  0.70714386  0.28854956     0.29000
H629        H  0.18160105  0.63797419  0.28954861     0.19600
H630        H  0.20556055  0.54208895  0.36206744     0.19600
C631        C  0.33131612  0.66139001  0.84889443     0.45300
H632        H  0.33323586  0.66253026  0.82598607    -0.03700
C633        C  0.32695610  0.65887092  0.90260523     0.45400
H634        H  0.32504793  0.65808110  0.92552856    -0.03700
C635        C  0.35513683  0.63475381  0.86216411    -0.17400
C636        C  0.35479912  0.71254641  0.86255183    -0.17100
C637        C  0.28005744  0.63435418  0.85981751    -0.17500
C638        C  0.35531368  0.63631164  0.89071958    -0.17500
C639        C  0.35240846  0.71115008  0.89090625    -0.17100
C640        C  0.27775257  0.63222936  0.88825094    -0.17400
C641        C  0.17076819  0.83983423  0.65187942     0.45300
H642        H  0.17151814  0.84092905  0.67482234    -0.03700
C643        C  0.16867536  0.83876407  0.59815861     0.45400
H644        H  0.16793980  0.83819980  0.57519218    -0.03700
C645        C  0.22078119  0.86573349  0.63886707    -0.17400
C646        C  0.14605818  0.78761064  0.63964224    -0.17100
C647        C  0.14495823  0.86495526  0.63935137    -0.17500
C648        C  0.21972251  0.86591735  0.61034033    -0.17500
C649        C  0.14352774  0.78702397  0.61116937    -0.17100
C650        C  0.14271420  0.86318804  0.61087920    -0.17400
Zn651      Zn  0.03151460  0.96657855  0.98629630     1.49700
Zn652      Zn  0.49894975  0.99971512  0.54062550     1.49400
Zn653      Zn  0.03529167  0.56836090  0.98634532     1.49100
Zn654      Zn  0.43470404  0.96700875  0.98614177     1.49500
O655        O  0.49995092  0.00047578  0.00001688    -1.84300
O656        O  0.05816020  0.94655838  0.51749100    -0.74900
O657        O  0.03391443  0.56933655  0.55543952    -0.74700
O658        O  0.08986872  0.58123926  0.96153903    -0.74200
O659        O  0.03327035  0.96640612  0.55534236    -0.74900
O660        O  0.08574239  0.50943505  0.96134579    -0.74500
O661        O  0.06284543  0.61593573  0.51779650    -0.75100
O662        O  0.42308787  0.51402942  0.96433265    -0.74500
O663        O  0.43109974  0.96326219  0.55560685    -0.75200
O664        O  0.49226552  0.58443832  0.96477607    -0.74600
O665        O  0.38704223  0.94131029  0.51735880    -0.75100
O666        O  0.42099311  0.90921809  0.96220640    -0.75000
O667        O  0.48748935  0.90652047  0.96452442    -0.74800
C668        C  0.05584889  0.94842149  0.54365925     0.77000
C669        C  0.05867507  0.61125077  0.54395522     0.77500
C670        C  0.10523113  0.55380000  0.95340229     0.76500
C671        C  0.44860780  0.55919611  0.95798274     0.76800
C672        C  0.39071489  0.94239831  0.54359002     0.78000
C673        C  0.44506085  0.88919537  0.95598849     0.77000
Zn674      Zn  0.03312963  0.56567721  0.76502493     1.49700
Zn675      Zn  0.03059061  0.96341842  0.76284601     1.49400
Zn676      Zn  0.43407460  0.96480797  0.76286921     1.49100
Zn677      Zn  0.00186213  0.00207522  0.70913832     1.49500
O678        O  0.99996272  0.99921839  0.74990242    -1.84300
O679        O  0.08888852  0.57625128  0.78879113    -0.74900
O680        O  0.48693983  0.90569077  0.78630037    -0.74700
O681        O  0.42034275  0.50791110  0.78703535    -0.74200
O682        O  0.08791755  0.50582509  0.78605376    -0.74900
O683        O  0.48850361  0.57912574  0.78767416    -0.74500
O684        O  0.41845842  0.90425934  0.78510616    -0.75100
O685        O  0.43551407  0.97291146  0.69296674    -0.74500
O686        O  0.05177229  0.93864314  0.73103763    -0.75200
O687        O  0.38960465  0.94511783  0.73040185    -0.74600
O688        O  0.03356169  0.96680148  0.69355954    -0.75100
O689        O  0.03986248  0.57144111  0.69550119    -0.75000
O690        O  0.05952011  0.61548730  0.73403242    -0.74800
C691        C  0.10634352  0.54942142  0.79491140     0.77000
C692        C  0.44338121  0.88593687  0.79298331     0.77500
C693        C  0.44487348  0.55246279  0.79451846     0.76500
C694        C  0.39458008  0.95136562  0.70430067     0.76800
C695        C  0.05132688  0.94341463  0.70491650     0.78000
C696        C  0.05972264  0.61252359  0.70776138     0.77000
C697        C  0.11979725  0.74185905  0.59370233    -0.06300
C698        C  0.14604623  0.73822102  0.57182398    -0.17400
C699        C  0.12795497  0.69560732  0.55592271     0.10900
C700        C  0.08175642  0.65571100  0.56133322    -0.06200
C701        C  0.05517464  0.65949432  0.58280033    -0.17400
C702        C  0.07308492  0.70209779  0.59871069     0.11000
S703        S  0.16656282  0.69366337  0.53001331    -0.32400
S704        S  0.03364957  0.70558128  0.62341154    -0.32400
H705        H  0.00035207  0.65508114  0.62489790     0.29000
H706        H  0.15068122  0.64361380  0.53360761     0.29000
H707        H  0.18191191  0.76806662  0.56786571     0.19600
H708        H  0.01923106  0.62954251  0.58631418     0.19600
C709        C  0.26319706  0.88613876  0.59252489    -0.06300
C710        C  0.28470993  0.85780200  0.58906973    -0.17400
C711        C  0.32616057  0.87471072  0.57312782     0.10900
C712        C  0.34685919  0.92119653  0.56028316    -0.06200
C713        C  0.32542028  0.94930312  0.56347310    -0.17400
C714        C  0.28455809  0.93296976  0.57956921     0.11000
S715        S  0.35080140  0.83536724  0.57017388    -0.32400
S716        S  0.26536866  0.97654577  0.58392904    -0.32400
H717        H  0.22941383  0.94856825  0.60262876     0.29000
H718        H  0.37478331  0.85431993  0.54500456     0.29000
H719        H  0.26911978  0.82218201  0.59891729     0.19600
H720        H  0.34154836  0.98519785  0.55381595     0.19600
C721        C  0.11780307  0.88219635  0.59316732    -0.06300
C722        C  0.14267608  0.91200506  0.57047017    -0.17400
C723        C  0.12446416  0.93575496  0.55469670     0.10900
C724        C  0.07893047  0.92802151  0.56084134    -0.06200
C725        C  0.05257215  0.89595540  0.58230917    -0.17400
C726        C  0.07043519  0.87138735  0.59764927     0.11000
S727        S  0.16181234  0.47648505  0.52761235    -0.32400
S728        S  0.02745462  0.82127647  0.61850963    -0.32400
H729        H  0.05483022  0.79932886  0.62171295     0.29000
H730        H  0.14678032  0.51060831  0.53067791     0.29000
H731        H  0.17678172  0.91710545  0.56484852     0.19600
H732        H  0.01639289  0.88746092  0.58594090     0.19600
C733        C  0.12793908  0.74326901  0.65776659    -0.06300
C734        C  0.10049630  0.74007282  0.68073989    -0.17400
C735        C  0.07712231  0.69774096  0.69676181     0.10900
C736        C  0.08311123  0.65777072  0.69098898    -0.06200
C737        C  0.11312467  0.66170383  0.66917280    -0.17400
C738        C  0.13671772  0.70442393  0.65304824     0.11000
S739        S  0.03734513  0.69601312  0.72288952    -0.32400
S740        S  0.18125459  0.70861775  0.62938882    -0.32400
H741        H  0.20870357  0.75995865  0.62902875     0.29000
H742        H  0.00153674  0.64749932  0.71723496     0.29000
H743        H  0.09566851  0.77010151  0.68587951     0.19600
H744        H  0.11961147  0.63197686  0.66532842     0.19600
C745        C  0.26549166  0.88740759  0.65595794    -0.06300
C746        C  0.30258741  0.93539814  0.65020167    -0.17400
C747        C  0.34526382  0.95740545  0.66523376     0.10900
C748        C  0.35118812  0.93133793  0.68711073    -0.06200
C749        C  0.31405198  0.88418117  0.69343241    -0.17400
C750        C  0.27170188  0.86177607  0.67821518     0.11000
S751        S  0.38965012  0.01939796  0.65619646    -0.32400
S752        S  0.22786263  0.79973461  0.68729808    -0.32400
H753        H  0.25082870  0.79435938  0.71053617     0.29000
H754        H  0.40550633  0.03442370  0.68340885     0.29000
H755        H  0.29797057  0.95669789  0.63437889     0.19600
H756        H  0.31889122  0.86433599  0.71018616     0.19600
C757        C  0.12307463  0.88674485  0.65707675    -0.06300
C758        C  0.08410123  0.85538078  0.67376671    -0.17400
C759        C  0.05889694  0.87239155  0.68873694     0.10900
C760        C  0.07332406  0.92244524  0.68754197    -0.06200
C761        C  0.11251332  0.95419845  0.67120385    -0.17400
C762        C  0.13811621  0.93714713  0.65660239     0.11000
S763        S  0.00708189  0.82782794  0.70762238    -0.32400
S764        S  0.19170266  0.98214014  0.63982990    -0.32400
H765        H  0.21757863  0.96015293  0.64871928     0.29000
H766        H  0.48175176  0.85263990  0.70547896     0.29000
H767        H  0.07041189  0.81657946  0.67333670     0.19600
H768        H  0.12464755  0.99299719  0.67088775     0.19600
C769        C  0.38301922  0.62221850  0.90931401    -0.06300
C770        C  0.36044843  0.59470127  0.93308979    -0.17400
C771        C  0.38141611  0.57478630  0.94963473     0.10900
C772        C  0.42676569  0.58295127  0.94262067    -0.06200
C773        C  0.45178632  0.61484634  0.92067223    -0.17400
C774        C  0.43101962  0.63575680  0.90448305     0.11000
S775        S  0.34892249  0.54059911  0.97986508    -0.32400
S776        S  0.46930447  0.68251329  0.88009875    -0.32400
H777        H  0.44426173  0.70763218  0.88020073     0.29000
H778        H  0.38931631  0.55675059  0.99675538     0.29000
H779        H  0.32613836  0.58857903  0.93907083     0.19600
H780        H  0.48780266  0.62367588  0.91616577     0.19600
C781        C  0.42258663  0.84410065  0.93911635    -0.06300
C782        C  0.37449632  0.80958991  0.94384312    -0.17400
C783        C  0.35104425  0.76555414  0.92907913     0.10900
C784        C  0.37605164  0.75567323  0.90876468    -0.06200
C785        C  0.42454062  0.78978547  0.90453686    -0.17400
C786        C  0.44780532  0.83394786  0.91906999     0.11000
S787        S  0.28880984  0.72381012  0.93573114    -0.32400
S788        S  0.50880095  0.87668805  0.90986402    -0.32400
H789        H  0.50441522  0.91846458  0.91164653     0.29000
H790        H  0.28290466  0.75093550  0.95662114     0.29000
H791        H  0.35530564  0.81717048  0.95936415     0.19600
H792        H  0.44430818  0.78257979  0.88923581     0.19600
C793        C  0.14755093  0.57351741  0.93520031    -0.06300
C794        C  0.17449250  0.55047214  0.93607732    -0.17400
C795        C  0.21538444  0.56715533  0.92015177     0.10900
C796        C  0.23226865  0.61014046  0.90402447    -0.06200
C797        C  0.20443828  0.63219176  0.90218276    -0.17400
C798        C  0.16206498  0.61404038  0.91718961     0.11000
S799        S  0.24019096  0.52808104  0.91928163    -0.32400
S800        S  0.12742158  0.64283820  0.91134288    -0.32400
H801        H  0.08365538  0.59838627  0.91029832     0.29000
H802        H  0.26268848  0.54573356  0.89390744     0.29000
H803        H  0.16317265  0.51833593  0.94896554     0.19600
H804        H  0.21571620  0.66370491  0.88879927     0.19600
C805        C  0.37630023  0.61133345  0.84475774    -0.06300
C806        C  0.40382351  0.63734186  0.82171198    -0.17400
C807        C  0.42616046  0.61907910  0.80507210     0.10900
C808        C  0.42169679  0.57345030  0.81133305    -0.06200
C809        C  0.39257978  0.54614108  0.83353690    -0.17400
C810        C  0.36938043  0.56403852  0.84986970     0.11000
S811        S  0.45735714  0.65477586  0.77519434    -0.32400
S812        S  0.32715982  0.52205730  0.87439515    -0.32400
H813        H  0.28899550  0.51800226  0.85866387     0.29000
H814        H  0.44317512  0.61424458  0.75779595     0.29000
H815        H  0.40775082  0.67206800  0.81620322     0.19600
H816        H  0.38712229  0.51009080  0.83790102     0.19600
C817        C  0.37773865  0.75849008  0.84599416    -0.06300
C818        C  0.41740697  0.76853484  0.83008078    -0.17400
C819        C  0.43857717  0.80852510  0.81202021     0.10900
C820        C  0.42143309  0.84149215  0.81077745    -0.06200
C821        C  0.38302015  0.83268580  0.82781014    -0.17400
C822        C  0.36089403  0.79170617  0.84526247     0.11000
S823        S  0.48554904  0.81336183  0.79028965    -0.32400
S824        S  0.31091062  0.78411463  0.86525688    -0.32400
H825        H  0.28798557  0.73317282  0.86855828     0.29000
H826        H  0.46786057  0.82360832  0.76619958     0.29000
H827        H  0.43217976  0.74503686  0.83173705     0.19600
H828        H  0.36985733  0.85788118  0.82748775     0.19600
C829        C  0.15008255  0.57002494  0.81181527    -0.06300
C830        C  0.18686746  0.61763622  0.80582657    -0.17400
C831        C  0.23034365  0.63887568  0.82001055     0.10900
C832        C  0.23708901  0.61223340  0.84140379    -0.06200
C833        C  0.20069770  0.56369480  0.84648571    -0.17400
C834        C  0.15722792  0.54275623  0.83245942     0.11000
S835        S  0.27584923  0.69985962  0.81016817    -0.32400
S836        S  0.11156779  0.48221639  0.84305098    -0.32400
H837        H  0.07381609  0.49118857  0.83998698     0.29000
H838        H  0.25118181  0.70714479  0.78855091     0.29000
H839        H  0.18160010  0.63797419  0.78954907     0.19600
H840        H  0.20556085  0.54208839  0.86206699     0.19600
C841        C  0.83131609  0.16139043  0.34889482     0.45300
H842        H  0.83323607  0.16253082  0.32598651    -0.03700
C843        C  0.82695547  0.15887085  0.40260563     0.45400
H844        H  0.82504714  0.15808064  0.42552895    -0.03700
C845        C  0.85513630  0.13475374  0.36216450    -0.17400
C846        C  0.85479956  0.21254683  0.36255240    -0.17100
C847        C  0.78005723  0.13435488  0.35981780    -0.17500
C848        C  0.85531291  0.13631143  0.39071992    -0.17500
C849        C  0.85240838  0.21115004  0.39090685    -0.17100
C850        C  0.77775204  0.13223029  0.38825118    -0.17400
C851        C  0.67076789  0.33983399  0.15187941     0.45300
H852        H  0.67151837  0.34092871  0.17482233    -0.03700
C853        C  0.66867379  0.33876389  0.09815860     0.45400
H854        H  0.66793761  0.33819948  0.07519219    -0.03700
C855        C  0.72078070  0.36573407  0.13886654    -0.17400
C856        C  0.64605826  0.28761042  0.13964220    -0.17100
C857        C  0.64495671  0.36495407  0.13935180    -0.17500
C858        C  0.71972123  0.36591821  0.11033981    -0.17500
C859        C  0.64352752  0.28702383  0.11116936    -0.17100
C860        C  0.64271213  0.36318699  0.11087965    -0.17400
Zn861      Zn  0.53151458  0.46657879  0.48629641     1.49700
Zn862      Zn  0.99894993  0.49971567  0.04062543     1.49400
Zn863      Zn  0.53529146  0.06836092  0.48634585     1.49100
Zn864      Zn  0.93470430  0.46700907  0.48614138     1.49500
O865        O  0.99995068  0.50047577  0.50001690    -1.84300
O866        O  0.55815824  0.44655639  0.01749101    -0.74900
O867        O  0.53391451  0.06933758  0.05543875    -0.74700
O868        O  0.58986904  0.08124017  0.46154016    -0.74200
O869        O  0.53327141  0.46640778  0.05534230    -0.74900
O870        O  0.58574108  0.00943521  0.46134512    -0.74500
O871        O  0.56284739  0.11593651  0.01779576    -0.75100
O872        O  0.92308978  0.01403020  0.46433111    -0.74500
O873        O  0.93109960  0.46326149  0.05560719    -0.75200
O874        O  0.99226689  0.08443957  0.46477575    -0.74600
O875        O  0.88704217  0.44130870  0.01735917    -0.75100
O876        O  0.92099325  0.40921723  0.46220698    -0.75000
O877        O  0.98748943  0.40651955  0.46452559    -0.74800
C878        C  0.55584826  0.44842123  0.04365925     0.77000
C879        C  0.55867617  0.11125167  0.04395446     0.77500
C880        C  0.60523048  0.05380065  0.45340244     0.76500
C881        C  0.94860963  0.05919715  0.45798160     0.76800
C882        C  0.89071468  0.44239692  0.04359037     0.78000
C883        C  0.94506092  0.38919416  0.45598965     0.77000
Zn884      Zn  0.53313020  0.06567734  0.26502558     1.49700
Zn885      Zn  0.53059053  0.46341866  0.26284572     1.49400
Zn886      Zn  0.93407437  0.46480849  0.26286934     1.49100
Zn887      Zn  0.50186227  0.50207592  0.20913854     1.49500
O888        O  0.49996263  0.49921884  0.24990264    -1.84300
O889        O  0.58888869  0.07625063  0.28879152    -0.74900
O890        O  0.98694031  0.40569209  0.28630105    -0.74700
O891        O  0.92034349  0.00791247  0.28703569    -0.74200
O892        O  0.58791920  0.00582541  0.28605220    -0.74900
O893        O  0.98850501  0.07912652  0.28767527    -0.74500
O894        O  0.91845868  0.40426026  0.28510684    -0.75100
O895        O  0.93551409  0.47291196  0.19296673    -0.74500
O896        O  0.55176985  0.43864152  0.23103723    -0.75200
O897        O  0.88960404  0.44511732  0.23040159    -0.74600
O898        O  0.53356159  0.46680228  0.19355933    -0.75100
O899        O  0.53986411  0.07144223  0.19550196    -0.75000
O900        O  0.55952208  0.11548802  0.23403341    -0.74800
C901        C  0.60634459  0.04942119  0.29491063     0.77000
C902        C  0.94338175  0.38593817  0.29298416     0.77500
C903        C  0.94487474  0.05246386  0.29451936     0.76500
C904        C  0.89457986  0.45136532  0.20430037     0.76800
C905        C  0.55132529  0.44341395  0.20491614     0.78000
C906        C  0.55972508  0.11252455  0.20776236     0.77000
C907        C  0.61979789  0.24185900  0.09370232    -0.06300
C908        C  0.64604766  0.23822115  0.07182436    -0.17400
C909        C  0.62795663  0.19560770  0.05592282     0.10900
C910        C  0.58175749  0.15571177  0.06133259    -0.06200
C911        C  0.55517518  0.15949502  0.08279943    -0.17400
C912        C  0.57308539  0.20209796  0.09871019     0.11000
S913        S  0.66656554  0.19366383  0.03001408    -0.32400
S914        S  0.53364948  0.20558122  0.12341066    -0.32400
H915        H  0.50035652  0.15508011  0.12489994     0.29000
H916        H  0.65068172  0.14361351  0.03360698     0.29000
H917        H  0.68191345  0.26806659  0.06786658     0.19600
H918        H  0.51923119  0.12954357  0.08631282     0.19600
C919        C  0.76319531  0.38613878  0.09252399    -0.06300
C920        C  0.78470719  0.35780111  0.08906890    -0.17400
C921        C  0.82615862  0.37470938  0.07312780     0.10900
C922        C  0.84685860  0.42119548  0.06028330    -0.06200
C923        C  0.82541992  0.44930252  0.06347260    -0.17400
C924        C  0.78455743  0.43296993  0.07956841     0.11000
S925        S  0.85079861  0.33536485  0.07017543    -0.32400
S926        S  0.76536952  0.47654723  0.08392833    -0.32400
H927        H  0.72941441  0.44857037  0.10262810     0.29000
H928        H  0.87479245  0.35432403  0.04501005     0.29000
H929        H  0.76911608  0.32218099  0.09891634     0.19600
H930        H  0.84154872  0.48519725  0.05381539     0.19600
C931        C  0.61780131  0.38219593  0.09316803    -0.06300
C932        C  0.64267484  0.41200486  0.07047108    -0.17400
C933        C  0.62446310  0.43575430  0.05469712     0.10900
C934        C  0.57892936  0.42802097  0.06084144    -0.06200
C935        C  0.55257057  0.39595487  0.08230918    -0.17400
C936        C  0.57043331  0.37138689  0.09764964     0.11000
S937        S  0.66181173  0.97648323  0.02761228    -0.32400
S938        S  0.52745248  0.32127669  0.11851034    -0.32400
H939        H  0.55482783  0.29932894  0.12171461     0.29000
H940        H  0.64677913  0.01060626  0.03067621     0.29000
H941        H  0.67678069  0.41710538  0.06484975     0.19600
H942        H  0.51639124  0.38746049  0.08594060     0.19600
C943        C  0.62793942  0.24326883  0.15776659    -0.06300
C944        C  0.60049543  0.24007189  0.18073941    -0.17400
C945        C  0.57712252  0.19774051  0.19676175     0.10900
C946        C  0.58311421  0.15777171  0.19099007    -0.06200
C947        C  0.61312914  0.16170573  0.16917454    -0.17400
C948        C  0.63672034  0.20442502  0.15304913     0.11000
S949        S  0.53734291  0.19601087  0.22288841    -0.32400
S950        S  0.68125743  0.20861964  0.12938958    -0.32400
H951        H  0.70870435  0.25996059  0.12902814     0.29000
H952        H  0.50153579  0.14749677  0.21723326     0.29000
H953        H  0.59566586  0.27009974  0.18587834     0.19600
H954        H  0.61961782  0.13197972  0.16533097     0.19600
C955        C  0.76549181  0.38740761  0.15595694    -0.06300
C956        C  0.80258782  0.43539810  0.15020083    -0.17400
C957        C  0.84526401  0.45740527  0.16523318     0.10900
C958        C  0.85118822  0.43133739  0.18711003    -0.06200
C959        C  0.81405235  0.38418028  0.19343109    -0.17400
C960        C  0.77170198  0.36177592  0.17821413     0.11000
S961        S  0.88965007  0.51939829  0.15619671    -0.32400
S962        S  0.72786368  0.29973405  0.18729643    -0.32400
H963        H  0.75080764  0.29437750  0.21055163     0.29000
H964        H  0.90550496  0.53442321  0.18340938     0.29000
H965        H  0.79797112  0.45669823  0.13437814     0.19600
H966        H  0.81889227  0.36433369  0.21018385     0.19600
C967        C  0.62307339  0.38674365  0.15707737    -0.06300
C968        C  0.58409982  0.35537976  0.17376726    -0.17400
C969        C  0.55889553  0.37239072  0.18873728     0.10900
C970        C  0.57332212  0.42244423  0.18754164    -0.06200
C971        C  0.61251155  0.45419726  0.17120355    -0.17400
C972        C  0.63811520  0.43714592  0.15660292     0.11000
S973        S  0.50708154  0.32782768  0.20762371    -0.32400
S974        S  0.69170336  0.48213889  0.13983184    -0.32400
H975        H  0.71757727  0.46014865  0.14871987     0.29000
H976        H  0.98175033  0.35263848  0.20547948     0.29000
H977        H  0.57041031  0.31657843  0.17333741     0.19600
H978        H  0.62464577  0.49299597  0.17088722     0.19600
C979        C  0.88301943  0.12221932  0.40931415    -0.06300
C980        C  0.86044883  0.09470075  0.43308953    -0.17400
C981        C  0.88141754  0.07478644  0.44963409     0.10900
C982        C  0.92676740  0.08295251  0.44261978    -0.06200
C983        C  0.95178786  0.11484907  0.42067182    -0.17400
C984        C  0.93102034  0.13575942  0.40448318     0.11000
S985        S  0.84892515  0.04059890  0.47986460    -0.32400
S986        S  0.96930435  0.18251742  0.38009931    -0.32400
H987        H  0.94425919  0.20763373  0.38020086     0.29000
H988        H  0.88931962  0.05675379  0.49675481     0.29000
H989        H  0.82613816  0.08857687  0.43907046     0.19600
H990        H  0.98780456  0.12367981  0.41616531     0.19600
C991        C  0.92258683  0.34409912  0.43911790    -0.06300
C992        C  0.87449661  0.30958837  0.44384476    -0.17400
C993        C  0.85104406  0.26555343  0.42908009     0.10900
C994        C  0.87605159  0.25567254  0.40876568    -0.06200
C995        C  0.92454074  0.28978437  0.40453817    -0.17400
C996        C  0.94780549  0.33394652  0.41907143     0.11000
S997        S  0.78880951  0.22380961  0.43573200    -0.32400
S998        S  0.00880107  0.37668677  0.40986539    -0.32400
H999        H  0.00441538  0.41846331  0.41164803     0.29000
H1000       H  0.78289214  0.25095877  0.45660202     0.29000
H1001       H  0.85530652  0.31716805  0.45936668     0.19600
H1002       H  0.94430831  0.28257891  0.38923704     0.19600
C1003       C  0.64755011  0.07351842  0.43520037    -0.06300
C1004       C  0.67449140  0.05047289  0.43607701    -0.17400
C1005       C  0.71538326  0.06715617  0.42015141     0.10900
C1006       C  0.73226788  0.11014173  0.40402453    -0.06200
C1007       C  0.70443768  0.13219335  0.40218308    -0.17400
C1008       C  0.66206432  0.11404186  0.41719000     0.11000
S1009       S  0.74018937  0.02808153  0.41928078    -0.32400
S1010       S  0.62742122  0.14284029  0.41134402    -0.32400
H1011       H  0.58365436  0.09838893  0.41030056     0.29000
H1012       H  0.76268873  0.04573529  0.39390716     0.29000
H1013       H  0.66317141  0.01833642  0.44896498     0.19600
H1014       H  0.71571581  0.16370685  0.38879984     0.19600
C1015       C  0.87630046  0.11133388  0.34475829    -0.06300
C1016       C  0.90382329  0.13734207  0.32171234    -0.17400
C1017       C  0.92616048  0.11907940  0.30507255     0.10900
C1018       C  0.92169840  0.07345151  0.31133414    -0.06200
C1019       C  0.89258251  0.04614283  0.33353846    -0.17400
C1020       C  0.86938199  0.06403960  0.34987076     0.11000
S1021       S  0.95735488  0.15477467  0.27519388    -0.32400
S1022       S  0.82716078  0.02205779  0.37439575    -0.32400
H1023       H  0.78899685  0.01800371  0.35866447     0.29000
H1024       H  0.94317450  0.11424264  0.25779636     0.29000
H1025       H  0.90774971  0.17206771  0.31620325     0.19600
H1026       H  0.88712614  0.01009312  0.33790301     0.19600
C1027       C  0.87773949  0.25849085  0.34599488    -0.06300
C1028       C  0.91740776  0.26853582  0.33008133    -0.17400
C1029       C  0.93857795  0.30852637  0.31202089     0.10900
C1030       C  0.92143397  0.34149356  0.31077847    -0.06200
C1031       C  0.88302117  0.33268704  0.32781133    -0.17400
C1032       C  0.86089487  0.29170698  0.34526338     0.11000
S1033       S  0.98554909  0.31336303  0.29028965    -0.32400
S1034       S  0.81091077  0.28411453  0.36525744    -0.32400
H1035       H  0.78798566  0.23317261  0.36855822     0.29000
H1036       H  0.96785957  0.32360918  0.26619990     0.29000
H1037       H  0.93218027  0.24503744  0.33173717     0.19600
H1038       H  0.86985832  0.35788239  0.32748910     0.19600
C1039       C  0.65008352  0.07002460  0.31181449    -0.06300
C1040       C  0.68686834  0.11763602  0.30582598    -0.17400
C1041       C  0.73034416  0.13887576  0.32001036     0.10900
C1042       C  0.73708897  0.11223380  0.34140399    -0.06200
C1043       C  0.70069758  0.06369517  0.34648591    -0.17400
C1044       C  0.65722840  0.04275606  0.33245896     0.11000
S1045       S  0.77584996  0.19985976  0.31016811    -0.32400
S1046       S  0.61156861  0.98221547  0.34304971    -0.32400
H1047       H  0.57381591  0.99118576  0.33998437     0.29000
H1048       H  0.75118363  0.20714408  0.28854987     0.29000
H1049       H  0.68160118  0.13797391  0.28954835     0.19600
H1050       H  0.70556035  0.04208890  0.36206748     0.19600
C1051       C  0.83131624  0.16139009  0.84889443     0.45300
H1052       H  0.83323601  0.16253034  0.82598606    -0.03700
C1053       C  0.82695632  0.15887111  0.90260523     0.45400
H1054       H  0.82504819  0.15808131  0.92552856    -0.03700
C1055       C  0.85513696  0.13475390  0.86216412    -0.17400
C1056       C  0.85479927  0.21254652  0.86255180    -0.17100
C1057       C  0.78005758  0.13435431  0.85981753    -0.17500
C1058       C  0.85531385  0.13631180  0.89071957    -0.17500
C1059       C  0.85240864  0.21115024  0.89090622    -0.17100
C1060       C  0.77775275  0.13222953  0.88825097    -0.17400
C1061       C  0.67076813  0.33983434  0.65187947     0.45300
H1062       H  0.67151794  0.34092910  0.67482238    -0.03700
C1063       C  0.66867550  0.33876427  0.59815866     0.45400
H1064       H  0.66794007  0.33820007  0.57519222    -0.03700
C1065       C  0.72078117  0.36573364  0.63886719    -0.17400
C1066       C  0.64605819  0.28761078  0.63964224    -0.17100
C1067       C  0.64495824  0.36495539  0.63935138    -0.17500
C1068       C  0.71972261  0.36591758  0.61034046    -0.17500
C1069       C  0.64352786  0.28702413  0.61116937    -0.17100
C1070       C  0.64271427  0.36318819  0.61087921    -0.17400
Zn1071     Zn  0.53151455  0.46657862  0.98629633     1.49700
Zn1072     Zn  0.99894964  0.49971504  0.54062546     1.49400
Zn1073     Zn  0.53529174  0.06836084  0.98634533     1.49100
Zn1074     Zn  0.93470396  0.46700878  0.98614186     1.49500
O1075       O  0.99995087  0.50047587  0.00001691    -1.84300
O1076       O  0.55816011  0.44655816  0.51749092    -0.74900
O1077       O  0.53391463  0.06933656  0.55543957    -0.74700
O1078       O  0.58986865  0.08123919  0.96153903    -0.74200
O1079       O  0.53327039  0.46640596  0.55534233    -0.74900
O1080       O  0.58574257  0.00943510  0.96134587    -0.74500
O1081       O  0.56284558  0.11593573  0.51779657    -0.75100
O1082       O  0.92308784  0.01402929  0.96433259    -0.74500
O1083       O  0.93109970  0.46326200  0.55560684    -0.75200
O1084       O  0.99226539  0.08443825  0.96477603    -0.74600
O1085       O  0.88704235  0.44131038  0.51735876    -0.75100
O1086       O  0.92099297  0.40921808  0.96220648    -0.75000
O1087       O  0.98748929  0.40652062  0.96452441    -0.74800
C1088       C  0.55584888  0.44842132  0.54365919     0.77000
C1089       C  0.55867528  0.11125077  0.54395528     0.77500
C1090       C  0.60523122  0.05380004  0.95340236     0.76500
C1091       C  0.94860771  0.05919597  0.95798265     0.76800
C1092       C  0.89071489  0.44239830  0.54358998     0.78000
C1093       C  0.94506079  0.38919545  0.95598851     0.77000
Zn1094     Zn  0.53312953  0.06567710  0.76502491     1.49700
Zn1095     Zn  0.53059070  0.46341852  0.76284607     1.49400
Zn1096     Zn  0.93407452  0.46480791  0.76286925     1.49100
Zn1097     Zn  0.50186212  0.50207514  0.70913838     1.49500
O1098       O  0.49996271  0.49921843  0.74990250    -1.84300
O1099       O  0.58888840  0.07625122  0.78879119    -0.74900
O1100       O  0.98693973  0.40569070  0.78630028    -0.74700
O1101       O  0.92034272  0.00791096  0.78703547    -0.74200
O1102       O  0.58791761  0.00582513  0.78605383    -0.74900
O1103       O  0.98850360  0.07912550  0.78767434    -0.74500
O1104       O  0.91845826  0.40425916  0.78510608    -0.75100
O1105       O  0.93551398  0.47291103  0.69296674    -0.74500
O1106       O  0.55177230  0.43864319  0.73103764    -0.75200
O1107       O  0.88960458  0.44511794  0.73040191    -0.74600
O1108       O  0.53356148  0.46680125  0.69355952    -0.75100
O1109       O  0.53986276  0.07144123  0.69550113    -0.75000
O1110       O  0.55952027  0.11548725  0.73403242    -0.74800
C1111       C  0.60634347  0.04942143  0.79491150     0.77000
C1112       C  0.94338111  0.38593670  0.79298319     0.77500
C1113       C  0.94487346  0.05246261  0.79451862     0.76500
C1114       C  0.89458000  0.45136547  0.70430071     0.76800
C1115       C  0.55132671  0.44341447  0.70491650     0.78000
C1116       C  0.55972299  0.11252367  0.70776137     0.77000
C1117       C  0.61979748  0.24185914  0.59370235    -0.06300
C1118       C  0.64604649  0.23822114  0.57182399    -0.17400
C1119       C  0.62795519  0.19560738  0.55592272     0.10900
C1120       C  0.58175671  0.15571098  0.56133331    -0.06200
C1121       C  0.55517508  0.15949421  0.58280053    -0.17400
C1122       C  0.57308528  0.20209772  0.59871082     0.11000
S1123       S  0.66656306  0.19366347  0.53001331    -0.32400
S1124       S  0.53364974  0.20558114  0.62341155    -0.32400
H1125       H  0.50035363  0.15508072  0.62489887     0.29000
H1126       H  0.65068134  0.14361385  0.53360751     0.29000
H1127       H  0.68191206  0.26806672  0.56786572     0.19600
H1128       H  0.51923151  0.12954228  0.58631449     0.19600
C1129       C  0.76319725  0.38613907  0.59252510    -0.06300
C1130       C  0.78471031  0.35780247  0.58907010    -0.17400
C1131       C  0.82616075  0.37471105  0.57312800     0.10900
C1132       C  0.84685914  0.42119663  0.56028311    -0.06200
C1133       C  0.82542016  0.44930319  0.56347300    -0.17400
C1134       C  0.78455808  0.43296991  0.57956924     0.11000
S1135       S  0.85080158  0.33536763  0.57017392    -0.32400
S1136       S  0.76536867  0.47654594  0.58392903    -0.32400
H1137       H  0.72941394  0.44856848  0.60262882     0.29000
H1138       H  0.87478156  0.35431909  0.54500395     0.29000
H1139       H  0.76912033  0.32218261  0.59891781     0.19600
H1140       H  0.84154811  0.48519779  0.55381576     0.19600
C1141       C  0.61780313  0.38219642  0.59316732    -0.06300
C1142       C  0.64267617  0.41200514  0.57047019    -0.17400
C1143       C  0.62446420  0.43575490  0.55469665     0.10900
C1144       C  0.57893050  0.42802139  0.56084126    -0.06200
C1145       C  0.55257221  0.39595540  0.58230916    -0.17400
C1146       C  0.57043523  0.37138735  0.59764926     0.11000
S1147       S  0.66181271  0.97648502  0.52761229    -0.32400
S1148       S  0.52745470  0.32127666  0.61850978    -0.32400
H1149       H  0.55483003  0.29932866  0.62171281     0.29000
H1150       H  0.64678057  0.01060820  0.53067764     0.29000
H1151       H  0.67678185  0.41710563  0.56484856     0.19600
H1152       H  0.51639301  0.38746102  0.58594096     0.19600
C1153       C  0.62793921  0.24326916  0.65776657    -0.06300
C1154       C  0.60049632  0.24007278  0.68073985    -0.17400
C1155       C  0.57712256  0.19774101  0.69676182     0.10900
C1156       C  0.58311171  0.15777089  0.69098902    -0.06200
C1157       C  0.61312523  0.16170416  0.66917284    -0.17400
C1158       C  0.63671816  0.20442426  0.65304825     0.11000
S1159       S  0.53734524  0.19601294  0.72288952    -0.32400
S1160       S  0.68125524  0.20861832  0.62938888    -0.32400
H1161       H  0.70870409  0.25995922  0.62902889     0.29000
H1162       H  0.50153694  0.14749913  0.71723490     0.29000
H1163       H  0.59566828  0.27010143  0.68587948     0.19600
H1164       H  0.61961216  0.13197727  0.66532844     0.19600
C1165       C  0.76549158  0.38740773  0.65595812    -0.06300
C1166       C  0.80258737  0.43539826  0.65020186    -0.17400
C1167       C  0.84526381  0.45740545  0.66523389     0.10900
C1168       C  0.85118806  0.43133785  0.68711083    -0.06200
C1169       C  0.81405187  0.38418118  0.69343257    -0.17400
C1170       C  0.77170175  0.36177617  0.67821537     0.11000
S1171       S  0.88965026  0.51939791  0.65619659    -0.32400
S1172       S  0.72786237  0.29973481  0.68729831    -0.32400
H1173       H  0.75082858  0.29435933  0.71053624     0.29000
H1174       H  0.90550676  0.53442362  0.68340894     0.29000
H1175       H  0.79797057  0.45669805  0.63437910     0.19600
H1176       H  0.81889109  0.36433600  0.71018635     0.19600
C1177       C  0.62307462  0.38674491  0.65707675    -0.06300
C1178       C  0.58410128  0.35538078  0.67376674    -0.17400
C1179       C  0.55889686  0.37239143  0.68873693     0.10900
C1180       C  0.57332390  0.42244509  0.68754197    -0.06200
C1181       C  0.61251314  0.45419838  0.67120386    -0.17400
C1182       C  0.63811608  0.43714715  0.65660237     0.11000
S1183       S  0.50708165  0.32782768  0.70762220    -0.32400
S1184       S  0.69170232  0.48214024  0.63982972    -0.32400
H1185       H  0.71757867  0.46015358  0.64871934     0.29000
H1186       H  0.98175203  0.35264013  0.70547932     0.29000
H1187       H  0.57041197  0.31657945  0.67333670     0.19600
H1188       H  0.62464726  0.49299705  0.67088773     0.19600
C1189       C  0.88301931  0.12221859  0.90931399    -0.06300
C1190       C  0.86044848  0.09470129  0.93308973    -0.17400
C1191       C  0.88141611  0.07478632  0.94963468     0.10900
C1192       C  0.92676561  0.08295108  0.94262054    -0.06200
C1193       C  0.95178625  0.11484612  0.92067209    -0.17400
C1194       C  0.93101969  0.13575685  0.90448302     0.11000
S1195       S  0.84892252  0.04059927  0.97986507    -0.32400
S1196       S  0.96930452  0.18251343  0.88009876    -0.32400
H1197       H  0.94426181  0.20763236  0.88020088     0.29000
H1198       H  0.88931637  0.05675074  0.99675534     0.29000
H1199       H  0.82613834  0.08857900  0.93907075     0.19600
H1200       H  0.98780254  0.12367553  0.91616555     0.19600
C1201       C  0.92258662  0.34410074  0.93911637    -0.06300
C1202       C  0.87449642  0.30958987  0.94384315    -0.17400
C1203       C  0.85104435  0.26555417  0.92907918     0.10900
C1204       C  0.87605178  0.25567338  0.90876465    -0.06200
C1205       C  0.92454077  0.28978567  0.90453687    -0.17400
C1206       C  0.94780540  0.33394807  0.91906997     0.11000
S1207       S  0.78880989  0.22381025  0.93573110    -0.32400
S1208       S  0.00880098  0.37668849  0.90986401    -0.32400
H1209       H  0.00441517  0.41846496  0.91164668     0.29000
H1210       H  0.78290497  0.25093505  0.95662159     0.29000
H1211       H  0.85530562  0.31717040  0.95936426     0.19600
H1212       H  0.94430842  0.28258004  0.88923580     0.19600
C1213       C  0.64755112  0.07351759  0.93520044    -0.06300
C1214       C  0.67449273  0.05047238  0.93607745    -0.17400
C1215       C  0.71538459  0.06715550  0.92015182     0.10900
C1216       C  0.73226884  0.11014067  0.90402455    -0.06200
C1217       C  0.70443843  0.13219189  0.90218282    -0.17400
C1218       C  0.66206512  0.11404045  0.91718966     0.11000
S1219       S  0.74019093  0.02808109  0.91928147    -0.32400
S1220       S  0.62742160  0.14283808  0.91134285    -0.32400
H1221       H  0.58365553  0.09838603  0.91029815     0.29000
H1222       H  0.76268871  0.04573396  0.89390739     0.29000
H1223       H  0.66317284  0.01833614  0.94896570     0.19600
H1224       H  0.71571628  0.16370497  0.88879930     0.19600
C1225       C  0.87630026  0.11133347  0.84475773    -0.06300
C1226       C  0.90382343  0.13734176  0.82171193    -0.17400
C1227       C  0.92616029  0.11907891  0.80507207     0.10900
C1228       C  0.92169680  0.07345020  0.81133313    -0.06200
C1229       C  0.89257995  0.04614114  0.83353705    -0.17400
C1230       C  0.86938050  0.06403858  0.84986974     0.11000
S1231       S  0.95735696  0.15477563  0.77519432    -0.32400
S1232       S  0.82715968  0.02205734  0.87439503    -0.32400
H1233       H  0.78899562  0.01800315  0.85866383     0.29000
H1234       H  0.94317523  0.11424434  0.75779600     0.29000
H1235       H  0.90775076  0.17206793  0.81620316     0.19600
H1236       H  0.88712263  0.01009095  0.83790130     0.19600
C1237       C  0.87773878  0.25849015  0.84599413    -0.06300
C1238       C  0.91740710  0.26853489  0.83008078    -0.17400
C1239       C  0.93857722  0.30852504  0.81202014     0.10900
C1240       C  0.92143299  0.34149199  0.81077730    -0.06200
C1241       C  0.88302013  0.33268569  0.82781002    -0.17400
C1242       C  0.86089409  0.29170619  0.84526242     0.11000
S1243       S  0.98554926  0.31336194  0.79028968    -0.32400
S1244       S  0.81091047  0.28411446  0.86525668    -0.32400
H1245       H  0.78798568  0.23317271  0.86855824     0.29000
H1246       H  0.96786107  0.32360870  0.76619957     0.29000
H1247       H  0.93217990  0.24503690  0.83173713     0.19600
H1248       H  0.86985720  0.35788107  0.82748756     0.19600
C1249       C  0.65008246  0.07002510  0.81181545    -0.06300
C1250       C  0.68686733  0.11763641  0.80582677    -0.17400
C1251       C  0.73034367  0.13887586  0.82001060     0.10900
C1252       C  0.73708910  0.11223359  0.84140385    -0.06200
C1253       C  0.70069775  0.06369507  0.84648583    -0.17400
C1254       C  0.65722793  0.04275643  0.83245961     0.11000
S1255       S  0.77584940  0.19985963  0.81016799    -0.32400
S1256       S  0.61156798  0.98221654  0.84305118    -0.32400
H1257       H  0.57381615  0.99118850  0.83998714     0.29000
H1258       H  0.75118151  0.20714520  0.78855116     0.29000
H1259       H  0.68159987  0.13797438  0.78954927     0.19600
H1260       H  0.70556096  0.04208865  0.86206714     0.19600
C1261       C  0.83131618  0.66139048  0.34889481     0.45300
H1262       H  0.83323615  0.66253086  0.32598650    -0.03700
C1263       C  0.82695547  0.65887080  0.40260562     0.45400
H1264       H  0.82504715  0.65808052  0.42552895    -0.03700
C1265       C  0.85513637  0.63475377  0.36216450    -0.17400
C1266       C  0.85479963  0.71254687  0.36255240    -0.17100
C1267       C  0.78005730  0.63435494  0.35981776    -0.17500
C1268       C  0.85531293  0.63631138  0.39071991    -0.17500
C1269       C  0.85240841  0.71115000  0.39090685    -0.17100
C1270       C  0.77775204  0.63223031  0.38825113    -0.17400
C1271       C  0.67076793  0.83983386  0.15187943     0.45300
H1272       H  0.67151841  0.84092855  0.17482234    -0.03700
C1273       C  0.66867387  0.83876388  0.09815861     0.45400
H1274       H  0.66793775  0.83819955  0.07519221    -0.03700
C1275       C  0.72078073  0.86573392  0.13886656    -0.17400
C1276       C  0.64605835  0.78761034  0.13964219    -0.17100
C1277       C  0.64495672  0.86495395  0.13935184    -0.17500
C1278       C  0.71972127  0.86591808  0.11033984    -0.17500
C1279       C  0.64352758  0.78702381  0.11116936    -0.17100
C1280       C  0.64271224  0.86318700  0.11087968    -0.17400
Zn1281     Zn  0.53151459  0.96657886  0.48629642     1.49700
Zn1282     Zn  0.99894993  0.99971564  0.04062542     1.49400
Zn1283     Zn  0.53529154  0.56836101  0.48634584     1.49100
Zn1284     Zn  0.93470425  0.96700910  0.48614136     1.49500
O1285       O  0.99995071  0.00047568  0.50001690    -1.84300
O1286       O  0.55815847  0.94655655  0.01749101    -0.74900
O1287       O  0.53391457  0.56933760  0.05543875    -0.74700
O1288       O  0.58986912  0.58124012  0.46154019    -0.74200
O1289       O  0.53327160  0.96640791  0.05534231    -0.74900
O1290       O  0.58574092  0.50943502  0.46134498    -0.74500
O1291       O  0.56284727  0.61593654  0.01779574    -0.75100
O1292       O  0.92308968  0.51403005  0.46433109    -0.74500
O1293       O  0.93109959  0.96326161  0.05560720    -0.75200
O1294       O  0.99226677  0.58443946  0.46477575    -0.74600
O1295       O  0.88704219  0.94130847  0.01735916    -0.75100
O1296       O  0.92099321  0.90921725  0.46220687    -0.75000
O1297       O  0.98748934  0.90651946  0.46452560    -0.74800
C1298       C  0.55584852  0.94842143  0.04365925     0.77000
C1299       C  0.55867616  0.61125169  0.04395445     0.77500
C1300       C  0.60523041  0.55380054  0.45340237     0.76500
C1301       C  0.94860954  0.55919701  0.45798157     0.76800
C1302       C  0.89071468  0.94239688  0.04359037     0.78000
C1303       C  0.94506087  0.88919413  0.45598960     0.77000
Zn1304     Zn  0.53313027  0.56567737  0.26502560     1.49700
Zn1305     Zn  0.53059051  0.96341856  0.26284573     1.49400
Zn1306     Zn  0.93407432  0.96480846  0.26286934     1.49100
Zn1307     Zn  0.50186240  0.00207603  0.20913854     1.49500
O1308       O  0.49996262  0.99921877  0.24990266    -1.84300
O1309       O  0.58888879  0.57625068  0.28879152    -0.74900
O1310       O  0.98694038  0.90569222  0.28630108    -0.74700
O1311       O  0.92034341  0.50791238  0.28703567    -0.74200
O1312       O  0.58791928  0.50582547  0.28605219    -0.74900
O1313       O  0.98850497  0.57912639  0.28767530    -0.74500
O1314       O  0.91845866  0.90426024  0.28510680    -0.75100
O1315       O  0.93551418  0.97291200  0.19296670    -0.74500
O1316       O  0.55176989  0.93864165  0.23103719    -0.75200
O1317       O  0.88960410  0.94511744  0.23040157    -0.74600
O1318       O  0.53356145  0.96680221  0.19355928    -0.75100
O1319       O  0.53986392  0.57144216  0.19550198    -0.75000
O1320       O  0.55952225  0.61548805  0.23403340    -0.74800
C1321       C  0.60634467  0.54942125  0.29491064     0.77000
C1322       C  0.94338183  0.88593824  0.29298416     0.77500
C1323       C  0.94487467  0.55246375  0.29451937     0.76500
C1324       C  0.89457992  0.95136539  0.20430036     0.76800
C1325       C  0.55132520  0.94341395  0.20491610     0.78000
C1326       C  0.55972505  0.61252451  0.20776235     0.77000
C1327       C  0.61979793  0.74185904  0.09370229    -0.06300
C1328       C  0.64604767  0.73822113  0.07182435    -0.17400
C1329       C  0.62795667  0.69560774  0.05592280     0.10900
C1330       C  0.58175751  0.65571181  0.06133257    -0.06200
C1331       C  0.55517518  0.65949506  0.08279940    -0.17400
C1332       C  0.57308542  0.70209805  0.09871014     0.11000
S1333       S  0.66656566  0.69366394  0.03001409    -0.32400
S1334       S  0.53364963  0.70558139  0.12341067    -0.32400
H1335       H  0.50035612  0.65508040  0.12489959     0.29000
H1336       H  0.65068168  0.64361357  0.03360687     0.29000
H1337       H  0.68191358  0.76806663  0.06786661     0.19600
H1338       H  0.51923125  0.62954363  0.08631280     0.19600
C1339       C  0.76319535  0.88613865  0.09252404    -0.06300
C1340       C  0.78470720  0.85780098  0.08906890    -0.17400
C1341       C  0.82615858  0.87470926  0.07312776     0.10900
C1342       C  0.84685860  0.92119542  0.06028331    -0.06200
C1343       C  0.82542007  0.94930255  0.06347278    -0.17400
C1344       C  0.78455755  0.93296989  0.07956856     0.11000
S1345       S  0.85079842  0.83536465  0.07017522    -0.32400
S1346       S  0.76536960  0.97654713  0.08392853    -0.32400
H1347       H  0.72941439  0.94857017  0.10262823     0.29000
H1348       H  0.87479168  0.85432357  0.04500966     0.29000
H1349       H  0.76911609  0.82218080  0.09891628     0.19600
H1350       H  0.84154896  0.98519740  0.05381569     0.19600
C1351       C  0.61780150  0.88219603  0.09316803    -0.06300
C1352       C  0.64267505  0.91200500  0.07047110    -0.17400
C1353       C  0.62446334  0.93575448  0.05469714     0.10900
C1354       C  0.57892961  0.92802117  0.06084145    -0.06200
C1355       C  0.55257081  0.89595507  0.08230918    -0.17400
C1356       C  0.57043350  0.87138704  0.09764964     0.11000
S1357       S  0.66181150  0.47648303  0.02761226    -0.32400
S1358       S  0.52745267  0.82127687  0.11851034    -0.32400
H1359       H  0.55482797  0.79932907  0.12171459     0.29000
H1360       H  0.64677878  0.51060599  0.03067608     0.29000
H1361       H  0.67678094  0.91710556  0.06484978     0.19600
H1362       H  0.51639149  0.88746073  0.08594062     0.19600
C1363       C  0.62793952  0.74326875  0.15776658    -0.06300
C1364       C  0.60049562  0.74007192  0.18073943    -0.17400
C1365       C  0.57712266  0.69774056  0.19676179     0.10900
C1366       C  0.58311415  0.65777164  0.19099004    -0.06200
C1367       C  0.61312898  0.66170555  0.16917447    -0.17400
C1368       C  0.63672032  0.70442486  0.15304910     0.11000
S1369       S  0.53734324  0.69601107  0.22288854    -0.32400
S1370       S  0.68125732  0.70861923  0.12938957    -0.32400
H1371       H  0.70870433  0.75996016  0.12902808     0.29000
H1372       H  0.50153597  0.64749705  0.21723335     0.29000
H1373       H  0.59566615  0.77009983  0.18587836     0.19600
H1374       H  0.61961751  0.63197947  0.16533087     0.19600
C1375       C  0.76549182  0.88740746  0.15595696    -0.06300
C1376       C  0.80258771  0.93539804  0.15020087    -0.17400
C1377       C  0.84526391  0.95740524  0.16523322     0.10900
C1378       C  0.85118824  0.93133741  0.18711002    -0.06200
C1379       C  0.81405243  0.88418023  0.19343110    -0.17400
C1380       C  0.77170205  0.86177581  0.17821412     0.11000
S1381       S  0.88964991  0.01939822  0.15619670    -0.32400
S1382       S  0.72786379  0.79973393  0.18729643    -0.32400
H1383       H  0.75080778  0.79437743  0.21055163     0.29000
H1384       H  0.90550481  0.03442319  0.18340936     0.29000
H1385       H  0.79797093  0.95669812  0.13437826     0.19600
H1386       H  0.81889239  0.86433373  0.21018383     0.19600
C1387       C  0.62307333  0.88674347  0.15707743    -0.06300
C1388       C  0.58409966  0.85537960  0.17376728    -0.17400
C1389       C  0.55889536  0.87239062  0.18873726     0.10900
C1390       C  0.57332198  0.92244414  0.18754160    -0.06200
C1391       C  0.61251140  0.95419710  0.17120350    -0.17400
C1392       C  0.63811510  0.93714574  0.15660294     0.11000
S1393       S  0.50708134  0.82782759  0.20762369    -0.32400
S1394       S  0.69170320  0.98213873  0.13983182    -0.32400
H1395       H  0.71757721  0.96014868  0.14871998     0.29000
H1396       H  0.98175028  0.85263827  0.20547931     0.29000
H1397       H  0.57041010  0.81657827  0.17333744     0.19600
H1398       H  0.62464560  0.99299580  0.17088709     0.19600
C1399       C  0.88301943  0.62221923  0.40931411    -0.06300
C1400       C  0.86044887  0.59470067  0.43308950    -0.17400
C1401       C  0.88141754  0.57478636  0.44963406     0.10900
C1402       C  0.92676736  0.58295241  0.44261974    -0.06200
C1403       C  0.95178791  0.61484906  0.42067182    -0.17400
C1404       C  0.93102039  0.63575941  0.40448316     0.11000
S1405       S  0.84892532  0.54059904  0.47986464    -0.32400
S1406       S  0.96930448  0.68251752  0.38009935    -0.32400
H1407       H  0.94425929  0.70763381  0.38020088     0.29000
H1408       H  0.88931988  0.55675404  0.49675479     0.29000
H1409       H  0.82613812  0.58857681  0.43907051     0.19600
H1410       H  0.98780458  0.62367982  0.41616537     0.19600
C1411       C  0.92258677  0.84409910  0.43911782    -0.06300
C1412       C  0.87449650  0.80958841  0.44384462    -0.17400
C1413       C  0.85104402  0.76555340  0.42908001     0.10900
C1414       C  0.87605157  0.75567248  0.40876566    -0.06200
C1415       C  0.92454070  0.78978428  0.40453813    -0.17400
C1416       C  0.94780544  0.83394645  0.41907138     0.11000
S1417       S  0.78880950  0.72380950  0.43573187    -0.32400
S1418       S  0.00880107  0.87668659  0.40986540    -0.32400
H1419       H  0.00441553  0.91846322  0.41164805     0.29000
H1420       H  0.78289219  0.75095839  0.45660207     0.29000
H1421       H  0.85530638  0.81716817  0.45936648     0.19600
H1422       H  0.94430822  0.78257875  0.38923704     0.19600
C1423       C  0.64755005  0.57351832  0.43520030    -0.06300
C1424       C  0.67449143  0.55047289  0.43607694    -0.17400
C1425       C  0.71538330  0.56715621  0.42015137     0.10900
C1426       C  0.73226782  0.61014170  0.40402445    -0.06200
C1427       C  0.70443752  0.63219322  0.40218296    -0.17400
C1428       C  0.66206423  0.61404181  0.41718994     0.11000
S1429       S  0.74018954  0.52808169  0.41928064    -0.32400
S1430       S  0.62742120  0.64284037  0.41134405    -0.32400
H1431       H  0.58365437  0.59838900  0.41030040     0.29000
H1432       H  0.76268877  0.54573548  0.39390699     0.29000
H1433       H  0.66317146  0.51833635  0.44896493     0.19600
H1434       H  0.71571561  0.66370671  0.38879970     0.19600
C1435       C  0.87630049  0.61133387  0.34475831    -0.06300
C1436       C  0.90382339  0.63734209  0.32171239    -0.17400
C1437       C  0.92616057  0.61907940  0.30507261     0.10900
C1438       C  0.92169833  0.57345142  0.31133414    -0.06200
C1439       C  0.89258230  0.54614270  0.33353842    -0.17400
C1440       C  0.86938186  0.56403952  0.34987074     0.11000
S1441       S  0.95735517  0.65477487  0.27519404    -0.32400
S1442       S  0.82716058  0.52205770  0.37439572    -0.32400
H1443       H  0.78899668  0.51800339  0.35866431     0.29000
H1444       H  0.94317479  0.61424293  0.25779644     0.29000
H1445       H  0.90774989  0.67206776  0.31620330     0.19600
H1446       H  0.88712583  0.51009296  0.33790295     0.19600
C1447       C  0.87773957  0.75849095  0.34599491    -0.06300
C1448       C  0.91740784  0.76853593  0.33008137    -0.17400
C1449       C  0.93857797  0.80852644  0.31202090     0.10900
C1450       C  0.92143402  0.84149365  0.31077847    -0.06200
C1451       C  0.88302125  0.83268713  0.32781133    -0.17400
C1452       C  0.86089499  0.79170712  0.34526341     0.11000
S1453       S  0.98554896  0.81336293  0.29028962    -0.32400
S1454       S  0.81091094  0.78411470  0.36525746    -0.32400
H1455       H  0.78798581  0.73317276  0.36855820     0.29000
H1456       H  0.96785961  0.82360943  0.26619991     0.29000
H1457       H  0.93218036  0.74503758  0.33173719     0.19600
H1458       H  0.86985835  0.85788251  0.32748908     0.19600
C1459       C  0.65008356  0.57002463  0.31181452    -0.06300
C1460       C  0.68686839  0.61763608  0.30582599    -0.17400
C1461       C  0.73034426  0.63887582  0.32001032     0.10900
C1462       C  0.73708907  0.61223386  0.34140393    -0.06200
C1463       C  0.70069773  0.56369517  0.34648584    -0.17400
C1464       C  0.65722850  0.54275605  0.33245893     0.11000
S1465       S  0.77585007  0.69985985  0.31016810    -0.32400
S1466       S  0.61156877  0.48221537  0.34304968    -0.32400
H1467       H  0.57381597  0.49118552  0.33998436     0.29000
H1468       H  0.75118385  0.70714400  0.28854972     0.29000
H1469       H  0.68160119  0.63797395  0.28954837     0.19600
H1470       H  0.70556056  0.54208894  0.36206734     0.19600
C1471       C  0.83131617  0.66139002  0.84889438     0.45300
H1472       H  0.83323588  0.66253021  0.82598604    -0.03700
C1473       C  0.82695623  0.65887106  0.90260520     0.45400
H1474       H  0.82504812  0.65808131  0.92552853    -0.03700
C1475       C  0.85513685  0.63475379  0.86216409    -0.17400
C1476       C  0.85479928  0.71254646  0.86255177    -0.17100
C1477       C  0.78005750  0.63435428  0.85981751    -0.17500
C1478       C  0.85531369  0.63631165  0.89071955    -0.17500
C1479       C  0.85240863  0.71115017  0.89090618    -0.17100
C1480       C  0.77775268  0.63222955  0.88825093    -0.17400
C1481       C  0.67076812  0.83983423  0.65187947     0.45300
H1482       H  0.67151794  0.84092896  0.67482239    -0.03700
C1483       C  0.66867553  0.83876427  0.59815866     0.45400
H1484       H  0.66794014  0.83820013  0.57519222    -0.03700
C1485       C  0.72078117  0.86573353  0.63886719    -0.17400
C1486       C  0.64605817  0.78761069  0.63964223    -0.17100
C1487       C  0.64495824  0.86495532  0.63935141    -0.17500
C1488       C  0.71972262  0.86591754  0.61034045    -0.17500
C1489       C  0.64352785  0.78702411  0.61116935    -0.17100
C1490       C  0.64271431  0.86318820  0.61087923    -0.17400
Zn1491     Zn  0.53151464  0.96657858  0.98629630     1.49700
Zn1492     Zn  0.99894975  0.99971513  0.54062546     1.49400
Zn1493     Zn  0.53529181  0.56836087  0.98634532     1.49100
Zn1494     Zn  0.93470403  0.96700869  0.98614186     1.49500
O1495       O  0.99995095  0.00047580  0.00001691    -1.84300
O1496       O  0.55816020  0.94655835  0.51749093    -0.74900
O1497       O  0.53391473  0.56933655  0.55543958    -0.74700
O1498       O  0.58986871  0.58123916  0.96153903    -0.74200
O1499       O  0.53327049  0.96640617  0.55534232    -0.74900
O1500       O  0.58574258  0.50943504  0.96134595    -0.74500
O1501       O  0.56284546  0.61593578  0.51779656    -0.75100
O1502       O  0.92308781  0.51402932  0.96433258    -0.74500
O1503       O  0.93109971  0.96326198  0.55560680    -0.75200
O1504       O  0.99226538  0.58443831  0.96477606    -0.74600
O1505       O  0.88704223  0.94131031  0.51735876    -0.75100
O1506       O  0.92099304  0.90921798  0.96220649    -0.75000
O1507       O  0.98748933  0.90652044  0.96452441    -0.74800
C1508       C  0.55584900  0.94842153  0.54365918     0.77000
C1509       C  0.55867523  0.61125078  0.54395528     0.77500
C1510       C  0.60523123  0.55379995  0.95340239     0.76500
C1511       C  0.94860770  0.55919603  0.95798268     0.76800
C1512       C  0.89071486  0.94239823  0.54358998     0.78000
C1513       C  0.94506081  0.88919531  0.95598851     0.77000
Zn1514     Zn  0.53312960  0.56567720  0.76502491     1.49700
Zn1515     Zn  0.53059068  0.96341846  0.76284603     1.49400
Zn1516     Zn  0.93407462  0.96480799  0.76286922     1.49100
Zn1517     Zn  0.50186216  0.00207528  0.70913838     1.49500
O1518       O  0.49996274  0.99921841  0.74990248    -1.84300
O1519       O  0.58888836  0.57625124  0.78879123    -0.74900
O1520       O  0.98693981  0.90569063  0.78630027    -0.74700
O1521       O  0.92034288  0.50791109  0.78703549    -0.74200
O1522       O  0.58791757  0.50582515  0.78605381    -0.74900
O1523       O  0.98850374  0.57912573  0.78767431    -0.74500
O1524       O  0.91845847  0.90425933  0.78510611    -0.75100
O1525       O  0.93551396  0.97291114  0.69296668    -0.74500
O1526       O  0.55177229  0.93864309  0.73103759    -0.75200
O1527       O  0.88960465  0.94511798  0.73040187    -0.74600
O1528       O  0.53356147  0.96680135  0.69355956    -0.75100
O1529       O  0.53986257  0.57144113  0.69550117    -0.75000
O1530       O  0.55952018  0.61548730  0.73403241    -0.74800
C1531       C  0.60634341  0.54942143  0.79491150     0.77000
C1532       C  0.94338121  0.88593676  0.79298321     0.77500
C1533       C  0.94487361  0.55246279  0.79451862     0.76500
C1534       C  0.89458001  0.95136552  0.70430067     0.76800
C1535       C  0.55132671  0.94341453  0.70491646     0.78000
C1536       C  0.55972277  0.61252361  0.70776137     0.77000
C1537       C  0.61979741  0.74185917  0.59370229    -0.06300
C1538       C  0.64604645  0.73822113  0.57182396    -0.17400
C1539       C  0.62795518  0.69560734  0.55592273     0.10900
C1540       C  0.58175666  0.65571102  0.56133328    -0.06200
C1541       C  0.55517495  0.65949428  0.58280044    -0.17400
C1542       C  0.57308518  0.70209783  0.59871072     0.11000
S1543       S  0.66656307  0.69366332  0.53001335    -0.32400
S1544       S  0.53364963  0.70558134  0.62341138    -0.32400
H1545       H  0.50035306  0.65508101  0.62489844     0.29000
H1546       H  0.65068115  0.64361364  0.53360748     0.29000
H1547       H  0.68191205  0.76806668  0.56786571     0.19600
H1548       H  0.51923144  0.62954242  0.58631437     0.19600
C1549       C  0.76319724  0.88613903  0.59252507    -0.06300
C1550       C  0.78471019  0.85780232  0.58906998    -0.17400
C1551       C  0.82616071  0.87471096  0.57312797     0.10900
C1552       C  0.84685915  0.92119660  0.56028313    -0.06200
C1553       C  0.82542019  0.94930315  0.56347304    -0.17400
C1554       C  0.78455814  0.93296994  0.57956926     0.11000
S1555       S  0.85080160  0.83536757  0.57017392    -0.32400
S1556       S  0.76536889  0.97654607  0.58392923    -0.32400
H1557       H  0.72941403  0.94856850  0.60262892     0.29000
H1558       H  0.87478075  0.85431845  0.54500366     0.29000
H1559       H  0.76912014  0.82218241  0.59891759     0.19600
H1560       H  0.84154824  0.98519788  0.55381579     0.19600
C1561       C  0.61780320  0.88219651  0.59316733    -0.06300
C1562       C  0.64267620  0.91200512  0.57047017    -0.17400
C1563       C  0.62446423  0.93575486  0.55469662     0.10900
C1564       C  0.57893058  0.92802154  0.56084126    -0.06200
C1565       C  0.55257233  0.89595561  0.58230916    -0.17400
C1566       C  0.57043533  0.87138755  0.59764926     0.11000
S1567       S  0.66181266  0.47648513  0.52761231    -0.32400
S1568       S  0.52745478  0.82127676  0.61850965    -0.32400
H1569       H  0.55483021  0.79932890  0.62171276     0.29000
H1570       H  0.64678046  0.51060826  0.53067767     0.29000
H1571       H  0.67678188  0.91710558  0.56484857     0.19600
H1572       H  0.51639306  0.88746121  0.58594093     0.19600
C1573       C  0.62793912  0.74326903  0.65776656    -0.06300
C1574       C  0.60049631  0.74007277  0.68073987    -0.17400
C1575       C  0.57712242  0.69774095  0.69676181     0.10900
C1576       C  0.58311145  0.65777077  0.69098898    -0.06200
C1577       C  0.61312498  0.66170398  0.66917282    -0.17400
C1578       C  0.63671797  0.70442408  0.65304824     0.11000
S1579       S  0.53734519  0.69601310  0.72288950    -0.32400
S1580       S  0.68125502  0.70861814  0.62938886    -0.32400
H1581       H  0.70870389  0.75995904  0.62902889     0.29000
H1582       H  0.50153687  0.64749925  0.71723501     0.29000
H1583       H  0.59566839  0.77010140  0.68587951     0.19600
H1584       H  0.61961187  0.63197705  0.66532844     0.19600
C1585       C  0.76549157  0.88740765  0.65595811    -0.06300
C1586       C  0.80258732  0.93539820  0.65020185    -0.17400
C1587       C  0.84526377  0.95740544  0.66523386     0.10900
C1588       C  0.85118805  0.93133789  0.68711081    -0.06200
C1589       C  0.81405187  0.88418124  0.69343259    -0.17400
C1590       C  0.77170176  0.86177619  0.67821539     0.11000
S1591       S  0.88965014  0.01939796  0.65619661    -0.32400
S1592       S  0.72786245  0.79973481  0.68729832    -0.32400
H1593       H  0.75082823  0.79435980  0.71053662     0.29000
H1594       H  0.90550659  0.03442361  0.68340898     0.29000
H1595       H  0.79797045  0.95669800  0.63437912     0.19600
H1596       H  0.81889113  0.86433607  0.71018635     0.19600
C1597       C  0.62307461  0.88674487  0.65707676    -0.06300
C1598       C  0.58410120  0.85538077  0.67376672    -0.17400
C1599       C  0.55889676  0.87239149  0.68873685     0.10900
C1600       C  0.57332380  0.92244513  0.68754185    -0.06200
C1601       C  0.61251300  0.95419836  0.67120370    -0.17400
C1602       C  0.63811603  0.93714710  0.65660231     0.11000
S1603       S  0.50708158  0.82782785  0.70762220    -0.32400
S1604       S  0.69170237  0.98214013  0.63982973    -0.32400
H1605       H  0.71757860  0.96015336  0.64871941     0.29000
H1606       H  0.98175199  0.85263991  0.70547917     0.29000
H1607       H  0.57041191  0.81657947  0.67333674     0.19600
H1608       H  0.62464710  0.99299704  0.67088755     0.19600
C1609       C  0.88301916  0.62221847  0.90931401    -0.06300
C1610       C  0.86044837  0.59470124  0.93308979    -0.17400
C1611       C  0.88141605  0.57478629  0.94963472     0.10900
C1612       C  0.92676558  0.58295118  0.94262062    -0.06200
C1613       C  0.95178625  0.61484633  0.92067221    -0.17400
C1614       C  0.93101955  0.63575680  0.90448305     0.11000
S1615       S  0.84892249  0.54059909  0.97986507    -0.32400
S1616       S  0.96930430  0.68251330  0.88009876    -0.32400
H1617       H  0.94426166  0.70763230  0.88020094     0.29000
H1618       H  0.88931635  0.55675071  0.99675537     0.29000
H1619       H  0.82613824  0.58857893  0.93907082     0.19600
H1620       H  0.98780259  0.62367589  0.91616574     0.19600
C1621       C  0.92258663  0.84410064  0.93911633    -0.06300
C1622       C  0.87449633  0.80958987  0.94384310    -0.17400
C1623       C  0.85104429  0.76555414  0.92907909     0.10900
C1624       C  0.87605171  0.75567333  0.90876461    -0.06200
C1625       C  0.92454073  0.78978556  0.90453684    -0.17400
C1626       C  0.94780538  0.83394794  0.91906998     0.11000
S1627       S  0.78880989  0.72381010  0.93573112    -0.32400
S1628       S  0.00880100  0.87668829  0.90986402    -0.32400
H1629       H  0.00441524  0.91846480  0.91164668     0.29000
H1630       H  0.78290504  0.75093478  0.95662171     0.29000
H1631       H  0.85530563  0.81717038  0.95936413     0.19600
H1632       H  0.94430832  0.78257991  0.88923582     0.19600
C1633       C  0.64755107  0.57351751  0.93520041    -0.06300
C1634       C  0.67449273  0.55047232  0.93607743    -0.17400
C1635       C  0.71538461  0.56715554  0.92015179     0.10900
C1636       C  0.73226877  0.61014065  0.90402449    -0.06200
C1637       C  0.70443830  0.63219183  0.90218276    -0.17400
C1638       C  0.66206502  0.61404039  0.91718965     0.11000
S1639       S  0.74019081  0.52808099  0.91928143    -0.32400
S1640       S  0.62742160  0.64283817  0.91134289    -0.32400
H1641       H  0.58365545  0.59838621  0.91029819     0.29000
H1642       H  0.76268875  0.54573393  0.89390739     0.29000
H1643       H  0.66317294  0.51833616  0.94896559     0.19600
H1644       H  0.71571612  0.66370492  0.88879925     0.19600
C1645       C  0.87630030  0.61133350  0.84475772    -0.06300
C1646       C  0.90382357  0.63734188  0.82171196    -0.17400
C1647       C  0.92616050  0.61907909  0.80507211     0.10900
C1648       C  0.92169695  0.57345035  0.81133314    -0.06200
C1649       C  0.89258006  0.54614125  0.83353703    -0.17400
C1650       C  0.86938060  0.56403862  0.84986974     0.11000
S1651       S  0.95735716  0.65477580  0.77519434    -0.32400
S1652       S  0.82715977  0.52205727  0.87439500    -0.32400
H1653       H  0.78899564  0.51800272  0.85866373     0.29000
H1654       H  0.94317540  0.61424449  0.75779601     0.29000
H1655       H  0.90775088  0.67206805  0.81620319     0.19600
H1656       H  0.88712269  0.51009098  0.83790122     0.19600
C1657       C  0.87773880  0.75849011  0.84599411    -0.06300
C1658       C  0.91740715  0.76853493  0.83008076    -0.17400
C1659       C  0.93857731  0.80852508  0.81202016     0.10900
C1660       C  0.92143306  0.84149202  0.81077731    -0.06200
C1661       C  0.88302014  0.83268570  0.82781002    -0.17400
C1662       C  0.86089411  0.79170616  0.84526241     0.11000
S1663       S  0.98554928  0.81336185  0.79028966    -0.32400
S1664       S  0.81091071  0.78411465  0.86525686    -0.32400
H1665       H  0.78798577  0.73317288  0.86855842     0.29000
H1666       H  0.96786102  0.82360850  0.76619956     0.29000
H1667       H  0.93218000  0.74503690  0.83173707     0.19600
H1668       H  0.86985729  0.85788107  0.82748761     0.19600
C1669       C  0.65008241  0.57002502  0.81181542    -0.06300
C1670       C  0.68686728  0.61763637  0.80582676    -0.17400
C1671       C  0.73034360  0.63887583  0.82001064     0.10900
C1672       C  0.73708900  0.61223353  0.84140386    -0.06200
C1673       C  0.70069765  0.56369495  0.84648583    -0.17400
C1674       C  0.65722785  0.54275630  0.83245956     0.11000
S1675       S  0.77584927  0.69985976  0.81016820    -0.32400
S1676       S  0.61156782  0.48221641  0.84305116    -0.32400
H1677       H  0.57381604  0.49118842  0.83998703     0.29000
H1678       H  0.75118201  0.70714482  0.78855079     0.29000
H1679       H  0.68159980  0.63797439  0.78954933     0.19600
H1680       H  0.70556082  0.54208855  0.86206713     0.19600
loop_ 
_geom_bond_atom_site_label_1 
_geom_bond_atom_site_label_2 
_geom_bond_distance 
_geom_bond_site_symmetry_2 
_ccdc_geom_bond_type 
C1            H2   1.109       .  S
C1            C7   1.535       .  S
C1            C6   1.549       .  S
C1            C5   1.547       .  S
C3            H4   1.110       .  S
C3            C9   1.533       .  S
C3            C8   1.544       .  S
C3           C10   1.548       .  S
C5            C8   1.382       .  D
C5          C175   1.507       .  S
C6            C9   1.372       .  D
C6          C187   1.485       .  S
C7           C10   1.376       .  D
C7          C202   1.500       .  S
C8          C139   1.493       .  S
C9          C154   1.495       .  S
C10         C166   1.490       .  S
C11          H12   1.110       .  S
C11          C17   1.546       .  S
C11          C16   1.547       .  S
C11          C15   1.540       .  S
C13          H14   1.111       .  S
C13          C19   1.544       .  S
C13          C18   1.551       .  S
C13          C20   1.541       .  S
C15          C18   1.379       .  D
C15         C115   1.505       .  S
C16          C19   1.378       .  D
C16         C103   1.496       .  S
C17          C20   1.378       .  D
C17         C127   1.496       .  S
C18          C79   1.498       .  S
C19          C67   1.499       .  S
C20          C91   1.500       .  S
Zn21        O865   1.950   1_455  S
Zn21        O236   1.995       .  S
Zn21        O450   1.995       .  S
Zn21        O877   2.007   1_455  S
Zn22        O235   1.963       .  S
Zn22         O33   2.040       .  S
Zn22       O1287   2.035       .  S
Zn22        O869   2.018       .  S
Zn23       O1285   1.966   1_455  S
Zn23         O28   2.012       .  S
Zn23        O241   2.009       .  S
Zn23        O874   2.010   1_455  S
Zn24         O25   1.953       .  S
Zn24         O36   2.021       .  S
Zn24        O452   2.010       .  S
Zn24        O245   2.018       .  S
O25        Zn861   1.950       .  S
O25        Zn232   1.963       .  S
O25       Zn1283   1.966       .  S
O26        Zn231   1.995   1_554  S
O26          C38   1.271       .  A
O27       Zn1282   2.035   1_445  S
O27          C39   1.277       .  A
O28          C40   1.271       .  A
O29        Zn862   2.018   1_455  S
O29          C38   1.274       .  A
O30        Zn441   1.995   1_545  S
O30          C40   1.272       .  A
O31        Zn233   2.009   1_554  S
O31          C39   1.272       .  A
O32        Zn444   2.010   1_545  S
O32          C41   1.274       .  A
O33          C42   1.275       .  A
O34        Zn863   2.010       .  S
O34          C41   1.273       .  A
O35        Zn234   2.018   1_554  S
O35          C42   1.272       .  A
O36          C43   1.274       .  A
O37        Zn861   2.007       .  S
O37          C43   1.271       .  A
C38          C94   1.471       .  S
C39          C70   1.480       .  S
C40         C163   1.482       .  S
C41         C142   1.472       .  S
C42          C82   1.475       .  S
C43         C151   1.480       .  S
Zn44        O468   1.960   1_445  S
Zn44         O49   2.030       .  S
Zn44         O60   2.020       .  S
Zn44        O893   2.038   1_455  S
Zn45         O48   1.957   1_455  S
Zn45         O56   2.009       .  S
Zn45        O890   2.000   1_455  S
Zn45        O472   2.003       .  S
Zn46        O888   1.955       .  S
Zn46         O54   2.022       .  S
Zn46         O57   2.009       .  S
Zn46        O471   2.020       .  S
Zn47         O48   1.972   1_455  S
Zn47         O58   2.022       .  S
Zn47        O895   2.030   1_455  S
Zn47        O479   2.006       .  S
O48        Zn464   1.960   1_655  S
O48        Zn886   1.955       .  S
O49          C61   1.276       .  A
O50        Zn885   2.000       .  S
O50          C62   1.270       .  A
O51        Zn466   2.020   1_545  S
O51          C63   1.273       .  A
O52        Zn465   2.003   1_545  S
O52          C61   1.271       .  A
O53        Zn884   2.038       .  S
O53          C63   1.276       .  A
O54          C62   1.274       .  A
O55        Zn887   2.030       .  S
O55          C64   1.274       .  A
O56          C65   1.272       .  A
O57          C64   1.274       .  A
O58          C65   1.273       .  A
O59        Zn467   2.006       .  S
O59          C66   1.271       .  A
O60          C66   1.274       .  A
C61         C199   1.478       .  S
C62         C190   1.484       .  S
C63         C178   1.483       .  S
C64         C118   1.478       .  S
C65         C130   1.470       .  S
C66         C106   1.475       .  S
C67          C68   1.405       .  A
C67          C72   1.420       .  A
C68          C69   1.401       .  A
C68          H77   1.084       .  S
C69          C70   1.414       .  A
C69          S73   1.803       .  S
C70          C71   1.399       .  A
C71          C72   1.402       .  A
C71          H78   1.083       .  S
C72          S74   1.804       .  S
S73          H76   1.407       .  S
S74          H75   1.407       .  S
C79          C80   1.406       .  A
C79          C84   1.422       .  A
C80          C81   1.406       .  A
C80          H89   1.083       .  S
C81          C82   1.412       .  A
C81          S85   1.804       .  S
C82          C83   1.396       .  A
C83          C84   1.397       .  A
C83          H90   1.085       .  S
C84          S86   1.799       .  S
S85          H88   1.405       .  S
S86          H87   1.386       .  S
C91          C92   1.403       .  A
C91          C96   1.421       .  A
C92          C93   1.397       .  A
C92         H101   1.076       .  S
C93          C94   1.411       .  A
C93         S517   1.805       .  S
C94          C95   1.398       .  A
C95          C96   1.397       .  A
C95         H102   1.084       .  S
C96          S98   1.798       .  S
S97         C513   1.805       .  S
S97         H100   1.407   1_565  S
S98          H99   1.393       .  S
C103        C104   1.400       .  A
C103        C108   1.420       .  A
C104        C105   1.391       .  A
C104        H113   1.073       .  S
C105        C106   1.408       .  A
C105        S109   1.795       .  S
C106        C107   1.403       .  A
C107        C108   1.402       .  A
C107        H114   1.084       .  S
C108        S110   1.804       .  S
S109        H112   1.407       .  S
S110        H111   1.404       .  S
C115        C116   1.408       .  A
C115        C120   1.420       .  A
C116        C117   1.403       .  A
C116        H125   1.078       .  S
C117        C118   1.411       .  A
C117        S121   1.803       .  S
C118        C119   1.397       .  A
C119        C120   1.399       .  A
C119        H126   1.083       .  S
C120        S122   1.800       .  S
S121        H124   1.406       .  S
S122        H123   1.406       .  S
C127        C128   1.403       .  A
C127        C132   1.414       .  A
C128        C129   1.398       .  A
C128        H137   1.075       .  S
C129        C130   1.409       .  A
C129        S133   1.804       .  S
C130        C131   1.400       .  A
C131        C132   1.400       .  A
C131        H138   1.084       .  S
C132        S134   1.791       .  S
S133        H976   1.406   1_455  S
S134        H135   1.408       .  S
H136        S973   1.406       .  S
C139        C140   1.402       .  A
C139        C144   1.418       .  A
C140        C141   1.393       .  A
C140        H149   1.076       .  S
C141        C142   1.410       .  A
C141        S145   1.805       .  S
C142        C143   1.403       .  A
C143        C144   1.401       .  A
C143        H150   1.084       .  S
C144        S146   1.804       .  S
S145        H148   1.407       .  S
S146        H147   1.403       .  S
C151        C152   1.402       .  A
C151        C156   1.414       .  A
C152        C153   1.402       .  A
C152        H161   1.083       .  S
C153        C154   1.414       .  A
C153        S157   1.802       .  S
C154        C155   1.405       .  A
C155        C156   1.399       .  A
C155        H162   1.082       .  S
C156        S158   1.803       .  S
S157        H160   1.406       .  S
S158        H159   1.407       .  S
C163        C164   1.402       .  A
C163        C168   1.416       .  A
C164        C165   1.392       .  A
C164        H173   1.084       .  S
C165        C166   1.413       .  A
C165        S169   1.794       .  S
C166        C167   1.404       .  A
C167        C168   1.401       .  A
C167        H174   1.083       .  S
C168        S170   1.801       .  S
S169        H172   1.392       .  S
S170        H171   1.408       .  S
C175        C176   1.404       .  A
C175        C180   1.419       .  A
C176        C177   1.398       .  A
C176        H185   1.074       .  S
C177        C178   1.410       .  A
C177        S181   1.795       .  S
C178        C179   1.401       .  A
C179        C180   1.402       .  A
C179        H186   1.084       .  S
C180        S182   1.790       .  S
S181        H184   1.407       .  S
S182        H183   1.408       .  S
C187        C188   1.398       .  A
C187        C192   1.416       .  A
C188        C189   1.396       .  A
C188        H197   1.077       .  S
C189        C190   1.417       .  A
C189        S193   1.802       .  S
C190        C191   1.406       .  A
C191        C192   1.400       .  A
C191        H198   1.084       .  S
C192        S194   1.807       .  S
S193        H196   1.407       .  S
S194        H195   1.401       .  S
C199        C200   1.399       .  A
C199        C204   1.412       .  A
C200        C201   1.402       .  A
C200        H209   1.083       .  S
C201        C202   1.418       .  A
C201        S205   1.801       .  S
C202        C203   1.406       .  A
C203        C204   1.398       .  A
C203        H210   1.080       .  S
C204        S206   1.803   1_545  S
S205        H208   1.406       .  S
S206        H207   1.407       .  S
C211        H212   1.109       .  S
C211        C217   1.535       .  S
C211        C216   1.549       .  S
C211        C215   1.547       .  S
C213        H214   1.110       .  S
C213        C219   1.533       .  S
C213        C218   1.544       .  S
C213        C220   1.548       .  S
C215        C218   1.382       .  D
C215        C385   1.507       .  S
C216        C219   1.372       .  D
C216        C397   1.485       .  S
C217        C220   1.376       .  D
C217        C412   1.500       .  S
C218        C349   1.493       .  S
C219        C364   1.495       .  S
C220        C376   1.490       .  S
C221        H222   1.110       .  S
C221        C227   1.546       .  S
C221        C226   1.547       .  S
C221        C225   1.540       .  S
C223        H224   1.111       .  S
C223        C229   1.544       .  S
C223        C228   1.551       .  S
C223        C230   1.541       .  S
C225        C228   1.379       .  D
C225        C325   1.505       .  S
C226        C229   1.378       .  D
C226        C313   1.496       .  S
C227        C230   1.378       .  D
C227        C337   1.496       .  S
C228        C289   1.498       .  S
C229        C277   1.499       .  S
C230        C301   1.500       .  S
Zn231      O1075   1.950   1_456  S
Zn231       O660   1.995       .  S
Zn231      O1087   2.007   1_455  S
Zn232      O1497   2.035       .  S
Zn232      O1079   2.018       .  S
Zn232       O243   2.040       .  S
Zn233      O1495   1.966   1_456  S
Zn233       O238   2.012       .  S
Zn233      O1084   2.010   1_455  S
Zn234       O235   1.953   1_556  S
Zn234       O662   2.010       .  S
Zn234       O246   2.021       .  S
O235      Zn1071   1.950   1_554  S
O235      Zn1493   1.966   1_554  S
O236        C248   1.271       .  A
O237      Zn1492   2.035   1_445  S
O237        C249   1.277       .  A
O238        C250   1.271       .  A
O239      Zn1072   2.018   1_455  S
O239        C248   1.274       .  A
O240       Zn651   1.995   1_545  S
O240        C250   1.272       .  A
O241        C249   1.272       .  A
O242       Zn654   2.010   1_545  S
O242        C251   1.274       .  A
O243        C252   1.275       .  A
O244      Zn1073   2.010       .  S
O244        C251   1.273       .  A
O245        C252   1.272       .  A
O246        C253   1.274       .  A
O247      Zn1071   2.007       .  S
O247        C253   1.271       .  A
C248        C304   1.471       .  S
C249        C280   1.480       .  S
C250        C373   1.482       .  S
C251        C352   1.472       .  S
C252        C292   1.475       .  S
C253        C361   1.480       .  S
Zn254       O678   1.960   1_445  S
Zn254       O259   2.030       .  S
Zn254      O1103   2.038   1_455  S
Zn254       O270   2.020       .  S
Zn255       O258   1.957   1_455  S
Zn255      O1100   2.000   1_455  S
Zn255       O682   2.003       .  S
Zn255       O266   2.009       .  S
Zn256      O1098   1.955       .  S
Zn256       O681   2.020       .  S
Zn256       O264   2.022       .  S
Zn256       O267   2.009       .  S
Zn257       O258   1.972   1_455  S
Zn257      O1105   2.030   1_455  S
Zn257       O268   2.022       .  S
Zn257       O689   2.006       .  S
O258       Zn674   1.960   1_655  S
O258      Zn1096   1.955       .  S
O259        C271   1.276       .  A
O260      Zn1095   2.000       .  S
O260        C272   1.270       .  A
O261       Zn676   2.020   1_545  S
O261        C273   1.273       .  A
O262       Zn675   2.003   1_545  S
O262        C271   1.271       .  A
O263      Zn1094   2.038       .  S
O263        C273   1.276       .  A
O264        C272   1.274       .  A
O265      Zn1097   2.030       .  S
O265        C274   1.274       .  A
O266        C275   1.272       .  A
O267        C274   1.274       .  A
O268        C275   1.273       .  A
O269       Zn677   2.006       .  S
O269        C276   1.271       .  A
O270        C276   1.274       .  A
C271        C409   1.478       .  S
C272        C400   1.484       .  S
C273        C388   1.483       .  S
C274        C328   1.478       .  S
C275        C340   1.470       .  S
C276        C316   1.475       .  S
C277        C278   1.405       .  A
C277        C282   1.420       .  A
C278        C279   1.401       .  A
C278        H287   1.084       .  S
C279        C280   1.414       .  A
C279        S283   1.803       .  S
C280        C281   1.399       .  A
C281        C282   1.402       .  A
C281        H288   1.083       .  S
C282        S284   1.804       .  S
S283        H286   1.407       .  S
S284        H285   1.407       .  S
C289        C290   1.406       .  A
C289        C294   1.422       .  A
C290        C291   1.406       .  A
C290        H299   1.083       .  S
C291        C292   1.412       .  A
C291        S295   1.804       .  S
C292        C293   1.396       .  A
C293        C294   1.397       .  A
C293        H300   1.085       .  S
C294        S296   1.799       .  S
S295        H298   1.405       .  S
S296        H297   1.386       .  S
C301        C302   1.403       .  A
C301        C306   1.421       .  A
C302        C303   1.397       .  A
C302        H311   1.076       .  S
C303        C304   1.411       .  A
C303        S727   1.805       .  S
C304        C305   1.398       .  A
C305        C306   1.397       .  A
C305        H312   1.084       .  S
C306        S308   1.798       .  S
S307        C723   1.805       .  S
S307        H310   1.407   1_565  S
S308        H309   1.393       .  S
C313        C314   1.400       .  A
C313        C318   1.420       .  A
C314        C315   1.391       .  A
C314        H323   1.073       .  S
C315        C316   1.408       .  A
C315        S319   1.795       .  S
C316        C317   1.403       .  A
C317        C318   1.402       .  A
C317        H324   1.084       .  S
C318        S320   1.804       .  S
S319        H322   1.407       .  S
S320        H321   1.404       .  S
C325        C326   1.408       .  A
C325        C330   1.420       .  A
C326        C327   1.402       .  A
C326        H335   1.078       .  S
C327        C328   1.411       .  A
C327        S331   1.803       .  S
C328        C329   1.397       .  A
C329        C330   1.399       .  A
C329        H336   1.083       .  S
C330        S332   1.800       .  S
S331        H334   1.406       .  S
S332        H333   1.406       .  S
C337        C338   1.403       .  A
C337        C342   1.414       .  A
C338        C339   1.398       .  A
C338        H347   1.075       .  S
C339        C340   1.409       .  A
C339        S343   1.804       .  S
C340        C341   1.400       .  A
C341        C342   1.400       .  A
C341        H348   1.084       .  S
C342        S344   1.791       .  S
S343       H1186   1.406   1_455  S
S344        H345   1.408       .  S
H346       S1183   1.406       .  S
C349        C350   1.402       .  A
C349        C354   1.418       .  A
C350        C351   1.393       .  A
C350        H359   1.076       .  S
C351        C352   1.410       .  A
C351        S355   1.805       .  S
C352        C353   1.403       .  A
C353        C354   1.401       .  A
C353        H360   1.084       .  S
C354        S356   1.804       .  S
S355        H358   1.407       .  S
S356        H357   1.403       .  S
C361        C362   1.402       .  A
C361        C366   1.414       .  A
C362        C363   1.402       .  A
C362        H371   1.083       .  S
C363        C364   1.414       .  A
C363        S367   1.802       .  S
C364        C365   1.405       .  A
C365        C366   1.399       .  A
C365        H372   1.082       .  S
C366        S368   1.803       .  S
S367        H370   1.406       .  S
S368        H369   1.407       .  S
C373        C374   1.402       .  A
C373        C378   1.416       .  A
C374        C375   1.392       .  A
C374        H383   1.084       .  S
C375        C376   1.413       .  A
C375        S379   1.794       .  S
C376        C377   1.404       .  A
C377        C378   1.401       .  A
C377        H384   1.083       .  S
C378        S380   1.801       .  S
S379        H382   1.392       .  S
S380        H381   1.408       .  S
C385        C386   1.404       .  A
C385        C390   1.419       .  A
C386        C387   1.398       .  A
C386        H395   1.074       .  S
C387        C388   1.410       .  A
C387        S391   1.795       .  S
C388        C389   1.401       .  A
C389        C390   1.402       .  A
C389        H396   1.084       .  S
C390        S392   1.790       .  S
S391        H394   1.407       .  S
S392        H393   1.408       .  S
C397        C398   1.398       .  A
C397        C402   1.416       .  A
C398        C399   1.396       .  A
C398        H407   1.077       .  S
C399        C400   1.417       .  A
C399        S403   1.802       .  S
C400        C401   1.406       .  A
C401        C402   1.400       .  A
C401        H408   1.084       .  S
C402        S404   1.807       .  S
S403        H406   1.407       .  S
S404        H405   1.401       .  S
C409        C410   1.399       .  A
C409        C414   1.412       .  A
C410        C411   1.402       .  A
C410        H419   1.083       .  S
C411        C412   1.418       .  A
C411        S415   1.801       .  S
C412        C413   1.406       .  A
C413        C414   1.398       .  A
C413        H420   1.080       .  S
C414        S416   1.803   1_545  S
S415        H418   1.406       .  S
S416        H417   1.407       .  S
C421        H422   1.109       .  S
C421        C427   1.535       .  S
C421        C426   1.549       .  S
C421        C425   1.547       .  S
C423        H424   1.110       .  S
C423        C429   1.533       .  S
C423        C428   1.544       .  S
C423        C430   1.548       .  S
C425        C428   1.382       .  D
C425        C595   1.507       .  S
C426        C429   1.372       .  D
C426        C607   1.485       .  S
C427        C430   1.376       .  D
C427        C622   1.500       .  S
C428        C559   1.493       .  S
C429        C574   1.495       .  S
C430        C586   1.490       .  S
C431        H432   1.110       .  S
C431        C437   1.546       .  S
C431        C436   1.547       .  S
C431        C435   1.540       .  S
C433        H434   1.111       .  S
C433        C439   1.544       .  S
C433        C438   1.551       .  S
C433        C440   1.541       .  S
C435        C438   1.379       .  D
C435        C535   1.505       .  S
C436        C439   1.378       .  D
C436        C523   1.496       .  S
C437        C440   1.378       .  D
C437        C547   1.496       .  S
C438        C499   1.498       .  S
C439        C487   1.499       .  S
C440        C511   1.500       .  S
Zn441      O1285   1.950   1_465  S
Zn441       O656   1.995       .  S
Zn441      O1297   2.007   1_455  S
Zn442       O655   1.963   1_565  S
Zn442       O867   2.035   1_565  S
Zn442      O1289   2.018       .  S
Zn442       O453   2.040       .  S
Zn443       O865   1.966   1_455  S
Zn443       O448   2.012       .  S
Zn443       O661   2.009       .  S
Zn443      O1294   2.010   1_455  S
Zn444       O445   1.953   1_565  S
Zn444       O665   2.018       .  S
Zn444       O456   2.021       .  S
O445      Zn1281   1.950   1_545  S
O445       Zn652   1.963   1_545  S
O445       Zn863   1.966       .  S
O446       Zn651   1.995   1_554  S
O446        C458   1.271       .  A
O447       Zn862   2.035   1_455  S
O447        C459   1.277       .  A
O448        C460   1.271       .  A
O449      Zn1282   2.018   1_455  S
O449        C458   1.274       .  A
O450        C460   1.272       .  A
O451       Zn653   2.009   1_554  S
O451        C459   1.272       .  A
O452        C461   1.274       .  A
O453        C462   1.275       .  A
O454      Zn1283   2.010       .  S
O454        C461   1.273       .  A
O455       Zn654   2.018   1_554  S
O455        C462   1.272       .  A
O456        C463   1.274       .  A
O457      Zn1281   2.007       .  S
O457        C463   1.271       .  A
C458        C514   1.471       .  S
C459        C490   1.480       .  S
C460        C583   1.482       .  S
C461        C562   1.472       .  S
C462        C502   1.475       .  S
C463        C571   1.480       .  S
Zn464       O469   2.030       .  S
Zn464      O1313   2.038   1_455  S
Zn464       O480   2.020       .  S
Zn465       O468   1.957   1_455  S
Zn465      O1310   2.000   1_455  S
Zn465       O476   2.009       .  S
Zn466      O1308   1.955       .  S
Zn466       O474   2.022       .  S
Zn466       O477   2.009       .  S
Zn467       O468   1.972   1_445  S
Zn467      O1315   2.030   1_445  S
Zn467       O478   2.022   1_545  S
O468      Zn1306   1.955       .  S
O469        C481   1.276       .  A
O470      Zn1305   2.000       .  S
O470        C482   1.270       .  A
O471        C483   1.273       .  A
O472        C481   1.271       .  A
O473      Zn1304   2.038       .  S
O473        C483   1.276       .  A
O474        C482   1.274       .  A
O475      Zn1307   2.030   1_565  S
O475        C484   1.274       .  A
O476        C485   1.272       .  A
O477        C484   1.274       .  A
O478        C485   1.273       .  A
O479        C486   1.271       .  A
O480        C486   1.274       .  A
C481        C619   1.478       .  S
C482        C610   1.484       .  S
C483        C598   1.483       .  S
C484        C538   1.478       .  S
C485        C550   1.470       .  S
C486        C526   1.475       .  S
C487        C488   1.405       .  A
C487        C492   1.420       .  A
C488        C489   1.401       .  A
C488        H497   1.084       .  S
C489        C490   1.414       .  A
C489        S493   1.803       .  S
C490        C491   1.399       .  A
C491        C492   1.402       .  A
C491        H498   1.083       .  S
C492        S494   1.804       .  S
S493        H496   1.407       .  S
S494        H495   1.407       .  S
C499        C500   1.406       .  A
C499        C504   1.422       .  A
C500        C501   1.406       .  A
C500        H509   1.083       .  S
C501        C502   1.412       .  A
C501        S505   1.804       .  S
C502        C503   1.396       .  A
C503        C504   1.397       .  A
C503        H510   1.085       .  S
C504        S506   1.799       .  S
S505        H508   1.405       .  S
S506        H507   1.386       .  S
C511        C512   1.403       .  A
C511        C516   1.421       .  A
C512        C513   1.397       .  A
C512        H521   1.076       .  S
C513        C514   1.411       .  A
C514        C515   1.398       .  A
C515        C516   1.397       .  A
C515        H522   1.084       .  S
C516        S518   1.798       .  S
S517        H520   1.407       .  S
S518        H519   1.393       .  S
C523        C524   1.400       .  A
C523        C528   1.420       .  A
C524        C525   1.391       .  A
C524        H533   1.073       .  S
C525        C526   1.408       .  A
C525        S529   1.795       .  S
C526        C527   1.403       .  A
C527        C528   1.402       .  A
C527        H534   1.084       .  S
C528        S530   1.804       .  S
S529        H532   1.407       .  S
S530        H531   1.404       .  S
C535        C536   1.408       .  A
C535        C540   1.420       .  A
C536        C537   1.403       .  A
C536        H545   1.078       .  S
C537        C538   1.411       .  A
C537        S541   1.803   1_565  S
C538        C539   1.397       .  A
C539        C540   1.399       .  A
C539        H546   1.083       .  S
C540        S542   1.800       .  S
S541        H544   1.406       .  S
S542        H543   1.406       .  S
C547        C548   1.403       .  A
C547        C552   1.414       .  A
C548        C549   1.398       .  A
C548        H557   1.075       .  S
C549        C550   1.409       .  A
C549        S553   1.804       .  S
C550        C551   1.400       .  A
C551        C552   1.400       .  A
C551        H558   1.084       .  S
C552        S554   1.791       .  S
S553       H1396   1.406   1_455  S
S554        H555   1.408       .  S
H556       S1393   1.406       .  S
C559        C560   1.402       .  A
C559        C564   1.418       .  A
C560        C561   1.393       .  A
C560        H569   1.076       .  S
C561        C562   1.410       .  A
C561        S565   1.805       .  S
C562        C563   1.403       .  A
C563        C564   1.401       .  A
C563        H570   1.084       .  S
C564        S566   1.804       .  S
S565        H568   1.407       .  S
S566        H567   1.403       .  S
C571        C572   1.402       .  A
C571        C576   1.414       .  A
C572        C573   1.402       .  A
C572        H581   1.083       .  S
C573        C574   1.414       .  A
C573        S577   1.802       .  S
C574        C575   1.405       .  A
C575        C576   1.399       .  A
C575        H582   1.082       .  S
C576        S578   1.803       .  S
S577        H580   1.406       .  S
S578        H579   1.407       .  S
C583        C584   1.402       .  A
C583        C588   1.416       .  A
C584        C585   1.392       .  A
C584        H593   1.084       .  S
C585        C586   1.413       .  A
C585        S589   1.794       .  S
C586        C587   1.404       .  A
C587        C588   1.401       .  A
C587        H594   1.083       .  S
C588        S590   1.801       .  S
S589        H592   1.392       .  S
S590        H591   1.408       .  S
C595        C596   1.404       .  A
C595        C600   1.419       .  A
C596        C597   1.398       .  A
C596        H605   1.074       .  S
C597        C598   1.410       .  A
C597        S601   1.795       .  S
C598        C599   1.401       .  A
C599        C600   1.402       .  A
C599        H606   1.084       .  S
C600        S602   1.790       .  S
S601        H604   1.407       .  S
S602        H603   1.408       .  S
C607        C608   1.398       .  A
C607        C612   1.416       .  A
C608        C609   1.396       .  A
C608        H617   1.077       .  S
C609        C610   1.417       .  A
C609        S613   1.802       .  S
C610        C611   1.406       .  A
C611        C612   1.400       .  A
C611        H618   1.084       .  S
C612        S614   1.807       .  S
S613        H616   1.407       .  S
S614        H615   1.401       .  S
C619        C620   1.399       .  A
C619        C624   1.412       .  A
C620        C621   1.402       .  A
C620        H629   1.083       .  S
C621        C622   1.418       .  A
C621        S625   1.801       .  S
C622        C623   1.406       .  A
C623        C624   1.398       .  A
C623        H630   1.080       .  S
C624        S626   1.803       .  S
S625        H628   1.406       .  S
S626        H627   1.407       .  S
C631        H632   1.109       .  S
C631        C637   1.535       .  S
C631        C636   1.549       .  S
C631        C635   1.547       .  S
C633        H634   1.110       .  S
C633        C639   1.533       .  S
C633        C638   1.544       .  S
C633        C640   1.548       .  S
C635        C638   1.382       .  D
C635        C805   1.507       .  S
C636        C639   1.372       .  D
C636        C817   1.485       .  S
C637        C640   1.376       .  D
C637        C832   1.500       .  S
C638        C769   1.493       .  S
C639        C784   1.495       .  S
C640        C796   1.490       .  S
C641        H642   1.110       .  S
C641        C647   1.546       .  S
C641        C646   1.547       .  S
C641        C645   1.540       .  S
C643        H644   1.111       .  S
C643        C649   1.544       .  S
C643        C648   1.551       .  S
C643        C650   1.541       .  S
C645        C648   1.379       .  D
C645        C745   1.505       .  S
C646        C649   1.378       .  D
C646        C733   1.496       .  S
C647        C650   1.378       .  D
C647        C757   1.496       .  S
C648        C709   1.498       .  S
C649        C697   1.499       .  S
C650        C721   1.500       .  S
Zn651      O1495   1.950   1_466  S
Zn651      O1507   2.007   1_455  S
Zn652      O1077   2.035   1_565  S
Zn652      O1499   2.018       .  S
Zn652       O663   2.040       .  S
Zn653      O1075   1.966   1_456  S
Zn653       O658   2.012       .  S
Zn653      O1504   2.010   1_455  S
Zn654       O655   1.953   1_566  S
Zn654       O666   2.021       .  S
O655      Zn1491   1.950   1_544  S
O655      Zn1073   1.966   1_554  S
O656        C668   1.271       .  A
O657      Zn1072   2.035   1_455  S
O657        C669   1.277       .  A
O658        C670   1.271       .  A
O659      Zn1492   2.018   1_455  S
O659        C668   1.274       .  A
O660        C670   1.272       .  A
O661        C669   1.272       .  A
O662        C671   1.274       .  A
O663        C672   1.275       .  A
O664      Zn1493   2.010       .  S
O664        C671   1.273       .  A
O665        C672   1.272       .  A
O666        C673   1.274       .  A
O667      Zn1491   2.007       .  S
O667        C673   1.271       .  A
C668        C724   1.471       .  S
C669        C700   1.480       .  S
C670        C793   1.482       .  S
C671        C772   1.472       .  S
C672        C712   1.475       .  S
C673        C781   1.480       .  S
Zn674       O679   2.030       .  S
Zn674      O1523   2.038   1_455  S
Zn674       O690   2.020       .  S
Zn675       O678   1.957   1_455  S
Zn675      O1520   2.000   1_455  S
Zn675       O686   2.009       .  S
Zn676      O1518   1.955       .  S
Zn676       O684   2.022       .  S
Zn676       O687   2.009       .  S
Zn677       O678   1.972   1_445  S
Zn677      O1525   2.030   1_445  S
Zn677       O688   2.022   1_545  S
O678      Zn1516   1.955       .  S
O679        C691   1.276       .  A
O680      Zn1515   2.000       .  S
O680        C692   1.270       .  A
O681        C693   1.273       .  A
O682        C691   1.271       .  A
O683      Zn1514   2.038       .  S
O683        C693   1.276       .  A
O684        C692   1.274       .  A
O685      Zn1517   2.030   1_565  S
O685        C694   1.274       .  A
O686        C695   1.272       .  A
O687        C694   1.274       .  A
O688        C695   1.273       .  A
O689        C696   1.271       .  A
O690        C696   1.274       .  A
C691        C829   1.478       .  S
C692        C820   1.484       .  S
C693        C808   1.483       .  S
C694        C748   1.478       .  S
C695        C760   1.470       .  S
C696        C736   1.475       .  S
C697        C698   1.405       .  A
C697        C702   1.420       .  A
C698        C699   1.401       .  A
C698        H707   1.084       .  S
C699        C700   1.414       .  A
C699        S703   1.803       .  S
C700        C701   1.399       .  A
C701        C702   1.402       .  A
C701        H708   1.083       .  S
C702        S704   1.804       .  S
S703        H706   1.407       .  S
S704        H705   1.407       .  S
C709        C710   1.406       .  A
C709        C714   1.422       .  A
C710        C711   1.406       .  A
C710        H719   1.083       .  S
C711        C712   1.412       .  A
C711        S715   1.804       .  S
C712        C713   1.396       .  A
C713        C714   1.397       .  A
C713        H720   1.085       .  S
C714        S716   1.799       .  S
S715        H718   1.405       .  S
S716        H717   1.386       .  S
C721        C722   1.403       .  A
C721        C726   1.421       .  A
C722        C723   1.397       .  A
C722        H731   1.076       .  S
C723        C724   1.411       .  A
C724        C725   1.398       .  A
C725        C726   1.397       .  A
C725        H732   1.084       .  S
C726        S728   1.798       .  S
S727        H730   1.407       .  S
S728        H729   1.393       .  S
C733        C734   1.400       .  A
C733        C738   1.420       .  A
C734        C735   1.391       .  A
C734        H743   1.073       .  S
C735        C736   1.408       .  A
C735        S739   1.795       .  S
C736        C737   1.403       .  A
C737        C738   1.402       .  A
C737        H744   1.084       .  S
C738        S740   1.804       .  S
S739        H742   1.407       .  S
S740        H741   1.404       .  S
C745        C746   1.408       .  A
C745        C750   1.420       .  A
C746        C747   1.403       .  A
C746        H755   1.078       .  S
C747        C748   1.411       .  A
C747        S751   1.803   1_565  S
C748        C749   1.397       .  A
C749        C750   1.399       .  A
C749        H756   1.083       .  S
C750        S752   1.800       .  S
S751        H754   1.406       .  S
S752        H753   1.406       .  S
C757        C758   1.403       .  A
C757        C762   1.414       .  A
C758        C759   1.398       .  A
C758        H767   1.075       .  S
C759        C760   1.409       .  A
C759        S763   1.804       .  S
C760        C761   1.400       .  A
C761        C762   1.400       .  A
C761        H768   1.084       .  S
C762        S764   1.791       .  S
S763       H1606   1.406   1_455  S
S764        H765   1.408       .  S
H766       S1603   1.406       .  S
C769        C770   1.402       .  A
C769        C774   1.418       .  A
C770        C771   1.393       .  A
C770        H779   1.076       .  S
C771        C772   1.410       .  A
C771        S775   1.805       .  S
C772        C773   1.403       .  A
C773        C774   1.401       .  A
C773        H780   1.084       .  S
C774        S776   1.804       .  S
S775        H778   1.407       .  S
S776        H777   1.403       .  S
C781        C782   1.402       .  A
C781        C786   1.414       .  A
C782        C783   1.402       .  A
C782        H791   1.083       .  S
C783        C784   1.414       .  A
C783        S787   1.802       .  S
C784        C785   1.405       .  A
C785        C786   1.399       .  A
C785        H792   1.082       .  S
C786        S788   1.803       .  S
S787        H790   1.406       .  S
S788        H789   1.407       .  S
C793        C794   1.402       .  A
C793        C798   1.416       .  A
C794        C795   1.392       .  A
C794        H803   1.084       .  S
C795        C796   1.413       .  A
C795        S799   1.794       .  S
C796        C797   1.404       .  A
C797        C798   1.401       .  A
C797        H804   1.083       .  S
C798        S800   1.801       .  S
S799        H802   1.392       .  S
S800        H801   1.408       .  S
C805        C806   1.404       .  A
C805        C810   1.419       .  A
C806        C807   1.398       .  A
C806        H815   1.074       .  S
C807        C808   1.410       .  A
C807        S811   1.795       .  S
C808        C809   1.401       .  A
C809        C810   1.402       .  A
C809        H816   1.084       .  S
C810        S812   1.790       .  S
S811        H814   1.407       .  S
S812        H813   1.408       .  S
C817        C818   1.398       .  A
C817        C822   1.416       .  A
C818        C819   1.396       .  A
C818        H827   1.077       .  S
C819        C820   1.417       .  A
C819        S823   1.802       .  S
C820        C821   1.406       .  A
C821        C822   1.400       .  A
C821        H828   1.084       .  S
C822        S824   1.807       .  S
S823        H826   1.407       .  S
S824        H825   1.401       .  S
C829        C830   1.399       .  A
C829        C834   1.412       .  A
C830        C831   1.402       .  A
C830        H839   1.083       .  S
C831        C832   1.418       .  A
C831        S835   1.801       .  S
C832        C833   1.406       .  A
C833        C834   1.398       .  A
C833        H840   1.080       .  S
C834        S836   1.803       .  S
S835        H838   1.406       .  S
S836        H837   1.407       .  S
C841        H842   1.109       .  S
C841        C847   1.535       .  S
C841        C846   1.549       .  S
C841        C845   1.547       .  S
C843        H844   1.110       .  S
C843        C849   1.533       .  S
C843        C848   1.544       .  S
C843        C850   1.548       .  S
C845        C848   1.382       .  D
C845       C1015   1.507       .  S
C846        C849   1.372       .  D
C846       C1027   1.485       .  S
C847        C850   1.376       .  D
C847       C1042   1.500       .  S
C848        C979   1.493       .  S
C849        C994   1.495       .  S
C850       C1006   1.490       .  S
C851        H852   1.110       .  S
C851        C857   1.546       .  S
C851        C856   1.547       .  S
C851        C855   1.540       .  S
C853        H854   1.111       .  S
C853        C859   1.544       .  S
C853        C858   1.551       .  S
C853        C860   1.541       .  S
C855        C858   1.379       .  D
C855        C955   1.505       .  S
C856        C859   1.378       .  D
C856        C943   1.496       .  S
C857        C860   1.378       .  D
C857        C967   1.496       .  S
C858        C919   1.498       .  S
C859        C907   1.499       .  S
C860        C931   1.500       .  S
Zn861      O1076   1.995       .  S
Zn861      O1290   1.995       .  S
Zn862      O1075   1.963       .  S
Zn862       O873   2.040       .  S
Zn863       O868   2.012       .  S
Zn863      O1081   2.009       .  S
Zn864       O865   1.953       .  S
Zn864      O1292   2.010       .  S
Zn864      O1085   2.018       .  S
Zn864       O876   2.021       .  S
O865      Zn1072   1.963       .  S
O866      Zn1071   1.995   1_554  S
O866        C878   1.271       .  A
O867        C879   1.277       .  A
O868        C880   1.271       .  A
O869        C878   1.274       .  A
O870      Zn1281   1.995   1_545  S
O870        C880   1.272       .  A
O871      Zn1073   2.009   1_554  S
O871        C879   1.272       .  A
O872      Zn1284   2.010   1_545  S
O872        C881   1.274       .  A
O873        C882   1.275       .  A
O874        C881   1.273       .  A
O875      Zn1074   2.018   1_554  S
O875        C882   1.272       .  A
O876        C883   1.274       .  A
O877        C883   1.271       .  A
C878        C934   1.471       .  S
C879        C910   1.480       .  S
C880       C1003   1.482       .  S
C881        C982   1.472       .  S
C882        C922   1.475       .  S
C883        C991   1.480       .  S
Zn884      O1308   1.960   1_545  S
Zn884       O889   2.030       .  S
Zn884       O900   2.020       .  S
Zn885       O888   1.957       .  S
Zn885      O1312   2.003       .  S
Zn885       O896   2.009       .  S
Zn886      O1311   2.020       .  S
Zn886       O894   2.022       .  S
Zn886       O897   2.009       .  S
Zn887       O888   1.972       .  S
Zn887       O898   2.022       .  S
Zn887      O1319   2.006       .  S
O888      Zn1304   1.960       .  S
O889        C901   1.276       .  A
O890        C902   1.270       .  A
O891      Zn1306   2.020   1_545  S
O891        C903   1.273       .  A
O892      Zn1305   2.003   1_545  S
O892        C901   1.271       .  A
O893        C903   1.276       .  A
O894        C902   1.274       .  A
O895        C904   1.274       .  A
O896        C905   1.272       .  A
O897        C904   1.274       .  A
O898        C905   1.273       .  A
O899      Zn1307   2.006       .  S
O899        C906   1.271       .  A
O900        C906   1.274       .  A
C901       C1039   1.478       .  S
C902       C1030   1.484       .  S
C903       C1018   1.483       .  S
C904        C958   1.478       .  S
C905        C970   1.470       .  S
C906        C946   1.475       .  S
C907        C908   1.405       .  A
C907        C912   1.420       .  A
C908        C909   1.401       .  A
C908        H917   1.084       .  S
C909        C910   1.414       .  A
C909        S913   1.803       .  S
C910        C911   1.399       .  A
C911        C912   1.402       .  A
C911        H918   1.083       .  S
C912        S914   1.804       .  S
S913        H916   1.407       .  S
S914        H915   1.407       .  S
C919        C920   1.406       .  A
C919        C924   1.422       .  A
C920        C921   1.406       .  A
C920        H929   1.083       .  S
C921        C922   1.412       .  A
C921        S925   1.804       .  S
C922        C923   1.396       .  A
C923        C924   1.397       .  A
C923        H930   1.085       .  S
C924        S926   1.799       .  S
S925        H928   1.405       .  S
S926        H927   1.386       .  S
C931        C932   1.403       .  A
C931        C936   1.421       .  A
C932        C933   1.397       .  A
C932        H941   1.076       .  S
C933        C934   1.411       .  A
C933       S1357   1.805       .  S
C934        C935   1.398       .  A
C935        C936   1.397       .  A
C935        H942   1.084       .  S
C936        S938   1.798       .  S
S937       C1353   1.805       .  S
S937        H940   1.407   1_565  S
S938        H939   1.393       .  S
C943        C944   1.400       .  A
C943        C948   1.420       .  A
C944        C945   1.391       .  A
C944        H953   1.073       .  S
C945        C946   1.408       .  A
C945        S949   1.795       .  S
C946        C947   1.403       .  A
C947        C948   1.402       .  A
C947        H954   1.084       .  S
C948        S950   1.804       .  S
S949        H952   1.407       .  S
S950        H951   1.404       .  S
C955        C956   1.408       .  A
C955        C960   1.420       .  A
C956        C957   1.403       .  A
C956        H965   1.078       .  S
C957        C958   1.411       .  A
C957        S961   1.803       .  S
C958        C959   1.397       .  A
C959        C960   1.399       .  A
C959        H966   1.083       .  S
C960        S962   1.800       .  S
S961        H964   1.406       .  S
S962        H963   1.406       .  S
C967        C968   1.403       .  A
C967        C972   1.414       .  A
C968        C969   1.398       .  A
C968        H977   1.075       .  S
C969        C970   1.409       .  A
C969        S973   1.804       .  S
C970        C971   1.400       .  A
C971        C972   1.400       .  A
C971        H978   1.084       .  S
C972        S974   1.791       .  S
S974        H975   1.408       .  S
C979        C980   1.402       .  A
C979        C984   1.418       .  A
C980        C981   1.393       .  A
C980        H989   1.076       .  S
C981        C982   1.410       .  A
C981        S985   1.805       .  S
C982        C983   1.403       .  A
C983        C984   1.401       .  A
C983        H990   1.084       .  S
C984        S986   1.804       .  S
S985        H988   1.407       .  S
S986        H987   1.403       .  S
C991        C992   1.402       .  A
C991        C996   1.414       .  A
C992        C993   1.402       .  A
C992       H1001   1.083       .  S
C993        C994   1.414       .  A
C993        S997   1.802       .  S
C994        C995   1.405       .  A
C995        C996   1.399       .  A
C995       H1002   1.082       .  S
C996        S998   1.803   1_655  S
S997       H1000   1.406       .  S
S998        H999   1.407       .  S
C1003      C1004   1.402       .  A
C1003      C1008   1.416       .  A
C1004      C1005   1.392       .  A
C1004      H1013   1.084       .  S
C1005      C1006   1.413       .  A
C1005      S1009   1.794       .  S
C1006      C1007   1.404       .  A
C1007      C1008   1.401       .  A
C1007      H1014   1.083       .  S
C1008      S1010   1.801       .  S
S1009      H1012   1.392       .  S
S1010      H1011   1.408       .  S
C1015      C1016   1.404       .  A
C1015      C1020   1.419       .  A
C1016      C1017   1.398       .  A
C1016      H1025   1.074       .  S
C1017      C1018   1.410       .  A
C1017      S1021   1.795       .  S
C1018      C1019   1.401       .  A
C1019      C1020   1.402       .  A
C1019      H1026   1.084       .  S
C1020      S1022   1.790       .  S
S1021      H1024   1.407       .  S
S1022      H1023   1.408       .  S
C1027      C1028   1.398       .  A
C1027      C1032   1.416       .  A
C1028      C1029   1.396       .  A
C1028      H1037   1.077       .  S
C1029      C1030   1.417       .  A
C1029      S1033   1.802       .  S
C1030      C1031   1.406       .  A
C1031      C1032   1.400       .  A
C1031      H1038   1.084       .  S
C1032      S1034   1.807       .  S
S1033      H1036   1.407       .  S
S1034      H1035   1.401       .  S
C1039      C1040   1.399       .  A
C1039      C1044   1.412       .  A
C1040      C1041   1.402       .  A
C1040      H1049   1.083       .  S
C1041      C1042   1.418       .  A
C1041      S1045   1.801       .  S
C1042      C1043   1.406       .  A
C1043      C1044   1.398       .  A
C1043      H1050   1.080       .  S
C1044      S1046   1.803   1_545  S
S1045      H1048   1.406       .  S
S1046      H1047   1.407       .  S
C1051      H1052   1.109       .  S
C1051      C1057   1.535       .  S
C1051      C1056   1.549       .  S
C1051      C1055   1.547       .  S
C1053      H1054   1.110       .  S
C1053      C1059   1.533       .  S
C1053      C1058   1.544       .  S
C1053      C1060   1.548       .  S
C1055      C1058   1.382       .  D
C1055      C1225   1.507       .  S
C1056      C1059   1.372       .  D
C1056      C1237   1.485       .  S
C1057      C1060   1.376       .  D
C1057      C1252   1.500       .  S
C1058      C1189   1.493       .  S
C1059      C1204   1.495       .  S
C1060      C1216   1.490       .  S
C1061      H1062   1.110       .  S
C1061      C1067   1.546       .  S
C1061      C1066   1.547       .  S
C1061      C1065   1.540       .  S
C1063      H1064   1.111       .  S
C1063      C1069   1.544       .  S
C1063      C1068   1.551       .  S
C1063      C1070   1.541       .  S
C1065      C1068   1.379       .  D
C1065      C1165   1.505       .  S
C1066      C1069   1.378       .  D
C1066      C1153   1.496       .  S
C1067      C1070   1.378       .  D
C1067      C1177   1.496       .  S
C1068      C1129   1.498       .  S
C1069      C1117   1.499       .  S
C1070      C1141   1.500       .  S
Zn1071     O1500   1.995       .  S
Zn1072     O1083   2.040       .  S
Zn1073     O1078   2.012       .  S
Zn1074     O1075   1.953   1_556  S
Zn1074     O1502   2.010       .  S
Zn1074     O1086   2.021       .  S
O1076      C1088   1.271       .  A
O1077      C1089   1.277       .  A
O1078      C1090   1.271       .  A
O1079      C1088   1.274       .  A
O1080     Zn1491   1.995   1_545  S
O1080      C1090   1.272       .  A
O1081      C1089   1.272       .  A
O1082     Zn1494   2.010   1_545  S
O1082      C1091   1.274       .  A
O1083      C1092   1.275       .  A
O1084      C1091   1.273       .  A
O1085      C1092   1.272       .  A
O1086      C1093   1.274       .  A
O1087      C1093   1.271       .  A
C1088      C1144   1.471       .  S
C1089      C1120   1.480       .  S
C1090      C1213   1.482       .  S
C1091      C1192   1.472       .  S
C1092      C1132   1.475       .  S
C1093      C1201   1.480       .  S
Zn1094     O1518   1.960   1_545  S
Zn1094     O1099   2.030       .  S
Zn1094     O1110   2.020       .  S
Zn1095     O1098   1.957       .  S
Zn1095     O1522   2.003       .  S
Zn1095     O1106   2.009       .  S
Zn1096     O1521   2.020       .  S
Zn1096     O1104   2.022       .  S
Zn1096     O1107   2.009       .  S
Zn1097     O1098   1.972       .  S
Zn1097     O1108   2.022       .  S
Zn1097     O1529   2.006       .  S
O1098     Zn1514   1.960       .  S
O1099      C1111   1.276       .  A
O1100      C1112   1.270       .  A
O1101     Zn1516   2.020   1_545  S
O1101      C1113   1.273       .  A
O1102     Zn1515   2.003   1_545  S
O1102      C1111   1.271       .  A
O1103      C1113   1.276       .  A
O1104      C1112   1.274       .  A
O1105      C1114   1.274       .  A
O1106      C1115   1.272       .  A
O1107      C1114   1.274       .  A
O1108      C1115   1.273       .  A
O1109     Zn1517   2.006       .  S
O1109      C1116   1.271       .  A
O1110      C1116   1.274       .  A
C1111      C1249   1.478       .  S
C1112      C1240   1.484       .  S
C1113      C1228   1.483       .  S
C1114      C1168   1.478       .  S
C1115      C1180   1.470       .  S
C1116      C1156   1.475       .  S
C1117      C1118   1.405       .  A
C1117      C1122   1.420       .  A
C1118      C1119   1.401       .  A
C1118      H1127   1.084       .  S
C1119      C1120   1.414       .  A
C1119      S1123   1.803       .  S
C1120      C1121   1.399       .  A
C1121      C1122   1.402       .  A
C1121      H1128   1.083       .  S
C1122      S1124   1.804       .  S
S1123      H1126   1.407       .  S
S1124      H1125   1.407       .  S
C1129      C1130   1.406       .  A
C1129      C1134   1.422       .  A
C1130      C1131   1.406       .  A
C1130      H1139   1.083       .  S
C1131      C1132   1.412       .  A
C1131      S1135   1.804       .  S
C1132      C1133   1.396       .  A
C1133      C1134   1.397       .  A
C1133      H1140   1.085       .  S
C1134      S1136   1.799       .  S
S1135      H1138   1.405       .  S
S1136      H1137   1.386       .  S
C1141      C1142   1.403       .  A
C1141      C1146   1.421       .  A
C1142      C1143   1.397       .  A
C1142      H1151   1.076       .  S
C1143      C1144   1.411       .  A
C1143      S1567   1.805       .  S
C1144      C1145   1.398       .  A
C1145      C1146   1.397       .  A
C1145      H1152   1.084       .  S
C1146      S1148   1.798       .  S
S1147      C1563   1.805       .  S
S1147      H1150   1.407   1_565  S
S1148      H1149   1.393       .  S
C1153      C1154   1.400       .  A
C1153      C1158   1.420       .  A
C1154      C1155   1.391       .  A
C1154      H1163   1.073       .  S
C1155      C1156   1.408       .  A
C1155      S1159   1.795       .  S
C1156      C1157   1.403       .  A
C1157      C1158   1.402       .  A
C1157      H1164   1.084       .  S
C1158      S1160   1.804       .  S
S1159      H1162   1.407       .  S
S1160      H1161   1.404       .  S
C1165      C1166   1.408       .  A
C1165      C1170   1.420       .  A
C1166      C1167   1.403       .  A
C1166      H1175   1.078       .  S
C1167      C1168   1.411       .  A
C1167      S1171   1.803       .  S
C1168      C1169   1.397       .  A
C1169      C1170   1.399       .  A
C1169      H1176   1.083       .  S
C1170      S1172   1.800       .  S
S1171      H1174   1.406       .  S
S1172      H1173   1.406       .  S
C1177      C1178   1.403       .  A
C1177      C1182   1.414       .  A
C1178      C1179   1.398       .  A
C1178      H1187   1.075       .  S
C1179      C1180   1.409       .  A
C1179      S1183   1.804       .  S
C1180      C1181   1.400       .  A
C1181      C1182   1.400       .  A
C1181      H1188   1.084       .  S
C1182      S1184   1.791       .  S
S1184      H1185   1.408       .  S
C1189      C1190   1.402       .  A
C1189      C1194   1.418       .  A
C1190      C1191   1.393       .  A
C1190      H1199   1.076       .  S
C1191      C1192   1.410       .  A
C1191      S1195   1.805       .  S
C1192      C1193   1.403       .  A
C1193      C1194   1.401       .  A
C1193      H1200   1.084       .  S
C1194      S1196   1.804       .  S
S1195      H1198   1.407       .  S
S1196      H1197   1.403       .  S
C1201      C1202   1.402       .  A
C1201      C1206   1.414       .  A
C1202      C1203   1.402       .  A
C1202      H1211   1.083       .  S
C1203      C1204   1.414       .  A
C1203      S1207   1.802       .  S
C1204      C1205   1.405       .  A
C1205      C1206   1.399       .  A
C1205      H1212   1.082       .  S
C1206      S1208   1.803   1_655  S
S1207      H1210   1.406       .  S
S1208      H1209   1.407       .  S
C1213      C1214   1.402       .  A
C1213      C1218   1.416       .  A
C1214      C1215   1.392       .  A
C1214      H1223   1.084       .  S
C1215      C1216   1.413       .  A
C1215      S1219   1.794       .  S
C1216      C1217   1.404       .  A
C1217      C1218   1.401       .  A
C1217      H1224   1.083       .  S
C1218      S1220   1.801       .  S
S1219      H1222   1.392       .  S
S1220      H1221   1.408       .  S
C1225      C1226   1.404       .  A
C1225      C1230   1.419       .  A
C1226      C1227   1.398       .  A
C1226      H1235   1.074       .  S
C1227      C1228   1.410       .  A
C1227      S1231   1.795       .  S
C1228      C1229   1.401       .  A
C1229      C1230   1.402       .  A
C1229      H1236   1.084       .  S
C1230      S1232   1.790       .  S
S1231      H1234   1.407       .  S
S1232      H1233   1.408       .  S
C1237      C1238   1.398       .  A
C1237      C1242   1.416       .  A
C1238      C1239   1.396       .  A
C1238      H1247   1.077       .  S
C1239      C1240   1.417       .  A
C1239      S1243   1.802       .  S
C1240      C1241   1.406       .  A
C1241      C1242   1.400       .  A
C1241      H1248   1.084       .  S
C1242      S1244   1.807       .  S
S1243      H1246   1.407       .  S
S1244      H1245   1.401       .  S
C1249      C1250   1.399       .  A
C1249      C1254   1.412       .  A
C1250      C1251   1.402       .  A
C1250      H1259   1.083       .  S
C1251      C1252   1.418       .  A
C1251      S1255   1.801       .  S
C1252      C1253   1.406       .  A
C1253      C1254   1.398       .  A
C1253      H1260   1.080       .  S
C1254      S1256   1.803   1_545  S
S1255      H1258   1.406       .  S
S1256      H1257   1.407       .  S
C1261      H1262   1.109       .  S
C1261      C1267   1.535       .  S
C1261      C1266   1.549       .  S
C1261      C1265   1.547       .  S
C1263      H1264   1.110       .  S
C1263      C1269   1.533       .  S
C1263      C1268   1.544       .  S
C1263      C1270   1.548       .  S
C1265      C1268   1.382       .  D
C1265      C1435   1.507       .  S
C1266      C1269   1.372       .  D
C1266      C1447   1.485       .  S
C1267      C1270   1.376       .  D
C1267      C1462   1.500       .  S
C1268      C1399   1.493       .  S
C1269      C1414   1.495       .  S
C1270      C1426   1.490       .  S
C1271      H1272   1.110       .  S
C1271      C1277   1.546       .  S
C1271      C1276   1.547       .  S
C1271      C1275   1.540       .  S
C1273      H1274   1.111       .  S
C1273      C1279   1.544       .  S
C1273      C1278   1.551       .  S
C1273      C1280   1.541       .  S
C1275      C1278   1.379       .  D
C1275      C1375   1.505       .  S
C1276      C1279   1.378       .  D
C1276      C1363   1.496       .  S
C1277      C1280   1.378       .  D
C1277      C1387   1.496       .  S
C1278      C1339   1.498       .  S
C1279      C1327   1.499       .  S
C1280      C1351   1.500       .  S
Zn1281     O1496   1.995       .  S
Zn1282     O1495   1.963   1_565  S
Zn1282     O1293   2.040       .  S
Zn1283     O1288   2.012       .  S
Zn1283     O1501   2.009       .  S
Zn1284     O1285   1.953   1_565  S
Zn1284     O1505   2.018       .  S
Zn1284     O1296   2.021       .  S
O1285     Zn1492   1.963   1_545  S
O1286     Zn1491   1.995   1_554  S
O1286      C1298   1.271       .  A
O1287      C1299   1.277       .  A
O1288      C1300   1.271       .  A
O1289      C1298   1.274       .  A
O1290      C1300   1.272       .  A
O1291     Zn1493   2.009   1_554  S
O1291      C1299   1.272       .  A
O1292      C1301   1.274       .  A
O1293      C1302   1.275       .  A
O1294      C1301   1.273       .  A
O1295     Zn1494   2.018   1_554  S
O1295      C1302   1.272       .  A
O1296      C1303   1.274       .  A
O1297      C1303   1.271       .  A
C1298      C1354   1.471       .  S
C1299      C1330   1.480       .  S
C1300      C1423   1.482       .  S
C1301      C1402   1.472       .  S
C1302      C1342   1.475       .  S
C1303      C1411   1.480       .  S
Zn1304     O1309   2.030       .  S
Zn1304     O1320   2.020       .  S
Zn1305     O1308   1.957       .  S
Zn1305     O1316   2.009       .  S
Zn1306     O1314   2.022       .  S
Zn1306     O1317   2.009       .  S
Zn1307     O1308   1.972   1_545  S
Zn1307     O1318   2.022   1_545  S
O1309      C1321   1.276       .  A
O1310      C1322   1.270       .  A
O1311      C1323   1.273       .  A
O1312      C1321   1.271       .  A
O1313      C1323   1.276       .  A
O1314      C1322   1.274       .  A
O1315      C1324   1.274       .  A
O1316      C1325   1.272       .  A
O1317      C1324   1.274       .  A
O1318      C1325   1.273       .  A
O1319      C1326   1.271       .  A
O1320      C1326   1.274       .  A
C1321      C1459   1.478       .  S
C1322      C1450   1.484       .  S
C1323      C1438   1.483       .  S
C1324      C1378   1.478       .  S
C1325      C1390   1.470       .  S
C1326      C1366   1.475       .  S
C1327      C1328   1.405       .  A
C1327      C1332   1.420       .  A
C1328      C1329   1.401       .  A
C1328      H1337   1.084       .  S
C1329      C1330   1.414       .  A
C1329      S1333   1.803       .  S
C1330      C1331   1.399       .  A
C1331      C1332   1.402       .  A
C1331      H1338   1.083       .  S
C1332      S1334   1.804       .  S
S1333      H1336   1.407       .  S
S1334      H1335   1.407       .  S
C1339      C1340   1.406       .  A
C1339      C1344   1.422       .  A
C1340      C1341   1.406       .  A
C1340      H1349   1.083       .  S
C1341      C1342   1.412       .  A
C1341      S1345   1.804       .  S
C1342      C1343   1.396       .  A
C1343      C1344   1.397       .  A
C1343      H1350   1.085       .  S
C1344      S1346   1.799       .  S
S1345      H1348   1.405       .  S
S1346      H1347   1.386       .  S
C1351      C1352   1.403       .  A
C1351      C1356   1.421       .  A
C1352      C1353   1.397       .  A
C1352      H1361   1.076       .  S
C1353      C1354   1.411       .  A
C1354      C1355   1.398       .  A
C1355      C1356   1.397       .  A
C1355      H1362   1.084       .  S
C1356      S1358   1.798       .  S
S1357      H1360   1.407       .  S
S1358      H1359   1.393       .  S
C1363      C1364   1.400       .  A
C1363      C1368   1.420       .  A
C1364      C1365   1.391       .  A
C1364      H1373   1.073       .  S
C1365      C1366   1.408       .  A
C1365      S1369   1.795       .  S
C1366      C1367   1.403       .  A
C1367      C1368   1.402       .  A
C1367      H1374   1.084       .  S
C1368      S1370   1.804       .  S
S1369      H1372   1.407       .  S
S1370      H1371   1.404       .  S
C1375      C1376   1.408       .  A
C1375      C1380   1.420       .  A
C1376      C1377   1.403       .  A
C1376      H1385   1.078       .  S
C1377      C1378   1.411       .  A
C1377      S1381   1.803   1_565  S
C1378      C1379   1.397       .  A
C1379      C1380   1.399       .  A
C1379      H1386   1.083       .  S
C1380      S1382   1.800       .  S
S1381      H1384   1.406       .  S
S1382      H1383   1.406       .  S
C1387      C1388   1.403       .  A
C1387      C1392   1.414       .  A
C1388      C1389   1.398       .  A
C1388      H1397   1.075       .  S
C1389      C1390   1.409       .  A
C1389      S1393   1.804       .  S
C1390      C1391   1.400       .  A
C1391      C1392   1.400       .  A
C1391      H1398   1.084       .  S
C1392      S1394   1.791       .  S
S1394      H1395   1.408       .  S
C1399      C1400   1.402       .  A
C1399      C1404   1.418       .  A
C1400      C1401   1.393       .  A
C1400      H1409   1.076       .  S
C1401      C1402   1.410       .  A
C1401      S1405   1.805       .  S
C1402      C1403   1.403       .  A
C1403      C1404   1.401       .  A
C1403      H1410   1.084       .  S
C1404      S1406   1.804       .  S
S1405      H1408   1.407       .  S
S1406      H1407   1.403       .  S
C1411      C1412   1.402       .  A
C1411      C1416   1.414       .  A
C1412      C1413   1.402       .  A
C1412      H1421   1.083       .  S
C1413      C1414   1.414       .  A
C1413      S1417   1.802       .  S
C1414      C1415   1.405       .  A
C1415      C1416   1.399       .  A
C1415      H1422   1.082       .  S
C1416      S1418   1.803   1_655  S
S1417      H1420   1.406       .  S
S1418      H1419   1.407       .  S
C1423      C1424   1.402       .  A
C1423      C1428   1.416       .  A
C1424      C1425   1.392       .  A
C1424      H1433   1.084       .  S
C1425      C1426   1.413       .  A
C1425      S1429   1.794       .  S
C1426      C1427   1.404       .  A
C1427      C1428   1.401       .  A
C1427      H1434   1.083       .  S
C1428      S1430   1.801       .  S
S1429      H1432   1.392       .  S
S1430      H1431   1.408       .  S
C1435      C1436   1.404       .  A
C1435      C1440   1.419       .  A
C1436      C1437   1.398       .  A
C1436      H1445   1.074       .  S
C1437      C1438   1.410       .  A
C1437      S1441   1.795       .  S
C1438      C1439   1.401       .  A
C1439      C1440   1.402       .  A
C1439      H1446   1.084       .  S
C1440      S1442   1.790       .  S
S1441      H1444   1.407       .  S
S1442      H1443   1.408       .  S
C1447      C1448   1.398       .  A
C1447      C1452   1.416       .  A
C1448      C1449   1.396       .  A
C1448      H1457   1.077       .  S
C1449      C1450   1.417       .  A
C1449      S1453   1.802       .  S
C1450      C1451   1.406       .  A
C1451      C1452   1.400       .  A
C1451      H1458   1.084       .  S
C1452      S1454   1.807       .  S
S1453      H1456   1.407       .  S
S1454      H1455   1.401       .  S
C1459      C1460   1.399       .  A
C1459      C1464   1.412       .  A
C1460      C1461   1.402       .  A
C1460      H1469   1.083       .  S
C1461      C1462   1.418       .  A
C1461      S1465   1.801       .  S
C1462      C1463   1.406       .  A
C1463      C1464   1.398       .  A
C1463      H1470   1.080       .  S
C1464      S1466   1.803       .  S
S1465      H1468   1.406       .  S
S1466      H1467   1.407       .  S
C1471      H1472   1.109       .  S
C1471      C1477   1.535       .  S
C1471      C1476   1.549       .  S
C1471      C1475   1.547       .  S
C1473      H1474   1.110       .  S
C1473      C1479   1.533       .  S
C1473      C1478   1.544       .  S
C1473      C1480   1.548       .  S
C1475      C1478   1.382       .  D
C1475      C1645   1.507       .  S
C1476      C1479   1.372       .  D
C1476      C1657   1.485       .  S
C1477      C1480   1.376       .  D
C1477      C1672   1.500       .  S
C1478      C1609   1.493       .  S
C1479      C1624   1.495       .  S
C1480      C1636   1.490       .  S
C1481      H1482   1.110       .  S
C1481      C1487   1.546       .  S
C1481      C1486   1.547       .  S
C1481      C1485   1.540       .  S
C1483      H1484   1.111       .  S
C1483      C1489   1.544       .  S
C1483      C1488   1.551       .  S
C1483      C1490   1.541       .  S
C1485      C1488   1.379       .  D
C1485      C1585   1.505       .  S
C1486      C1489   1.378       .  D
C1486      C1573   1.496       .  S
C1487      C1490   1.378       .  D
C1487      C1597   1.496       .  S
C1488      C1549   1.498       .  S
C1489      C1537   1.499       .  S
C1490      C1561   1.500       .  S
Zn1492     O1503   2.040       .  S
Zn1493     O1498   2.012       .  S
Zn1494     O1495   1.953   1_566  S
Zn1494     O1506   2.021       .  S
O1496      C1508   1.271       .  A
O1497      C1509   1.277       .  A
O1498      C1510   1.271       .  A
O1499      C1508   1.274       .  A
O1500      C1510   1.272       .  A
O1501      C1509   1.272       .  A
O1502      C1511   1.274       .  A
O1503      C1512   1.275       .  A
O1504      C1511   1.273       .  A
O1505      C1512   1.272       .  A
O1506      C1513   1.274       .  A
O1507      C1513   1.271       .  A
C1508      C1564   1.471       .  S
C1509      C1540   1.480       .  S
C1510      C1633   1.482       .  S
C1511      C1612   1.472       .  S
C1512      C1552   1.475       .  S
C1513      C1621   1.480       .  S
Zn1514     O1519   2.030       .  S
Zn1514     O1530   2.020       .  S
Zn1515     O1518   1.957       .  S
Zn1515     O1526   2.009       .  S
Zn1516     O1524   2.022       .  S
Zn1516     O1527   2.009       .  S
Zn1517     O1518   1.972   1_545  S
Zn1517     O1528   2.022   1_545  S
O1519      C1531   1.276       .  A
O1520      C1532   1.270       .  A
O1521      C1533   1.273       .  A
O1522      C1531   1.271       .  A
O1523      C1533   1.276       .  A
O1524      C1532   1.274       .  A
O1525      C1534   1.274       .  A
O1526      C1535   1.272       .  A
O1527      C1534   1.274       .  A
O1528      C1535   1.273       .  A
O1529      C1536   1.271       .  A
O1530      C1536   1.274       .  A
C1531      C1669   1.478       .  S
C1532      C1660   1.484       .  S
C1533      C1648   1.483       .  S
C1534      C1588   1.478       .  S
C1535      C1600   1.470       .  S
C1536      C1576   1.475       .  S
C1537      C1538   1.405       .  A
C1537      C1542   1.420       .  A
C1538      C1539   1.401       .  A
C1538      H1547   1.084       .  S
C1539      C1540   1.414       .  A
C1539      S1543   1.803       .  S
C1540      C1541   1.399       .  A
C1541      C1542   1.402       .  A
C1541      H1548   1.083       .  S
C1542      S1544   1.804       .  S
S1543      H1546   1.407       .  S
S1544      H1545   1.407       .  S
C1549      C1550   1.406       .  A
C1549      C1554   1.422       .  A
C1550      C1551   1.406       .  A
C1550      H1559   1.083       .  S
C1551      C1552   1.412       .  A
C1551      S1555   1.804       .  S
C1552      C1553   1.396       .  A
C1553      C1554   1.397       .  A
C1553      H1560   1.085       .  S
C1554      S1556   1.799       .  S
S1555      H1558   1.405       .  S
S1556      H1557   1.386       .  S
C1561      C1562   1.403       .  A
C1561      C1566   1.421       .  A
C1562      C1563   1.397       .  A
C1562      H1571   1.076       .  S
C1563      C1564   1.411       .  A
C1564      C1565   1.398       .  A
C1565      C1566   1.397       .  A
C1565      H1572   1.084       .  S
C1566      S1568   1.798       .  S
S1567      H1570   1.407       .  S
S1568      H1569   1.393       .  S
C1573      C1574   1.400       .  A
C1573      C1578   1.420       .  A
C1574      C1575   1.391       .  A
C1574      H1583   1.073       .  S
C1575      C1576   1.408       .  A
C1575      S1579   1.795       .  S
C1576      C1577   1.403       .  A
C1577      C1578   1.402       .  A
C1577      H1584   1.084       .  S
C1578      S1580   1.804       .  S
S1579      H1582   1.407       .  S
S1580      H1581   1.404       .  S
C1585      C1586   1.408       .  A
C1585      C1590   1.420       .  A
C1586      C1587   1.402       .  A
C1586      H1595   1.078       .  S
C1587      C1588   1.411       .  A
C1587      S1591   1.803   1_565  S
C1588      C1589   1.397       .  A
C1589      C1590   1.399       .  A
C1589      H1596   1.083       .  S
C1590      S1592   1.800       .  S
S1591      H1594   1.406       .  S
S1592      H1593   1.406       .  S
C1597      C1598   1.403       .  A
C1597      C1602   1.414       .  A
C1598      C1599   1.398       .  A
C1598      H1607   1.075       .  S
C1599      C1600   1.409       .  A
C1599      S1603   1.804       .  S
C1600      C1601   1.400       .  A
C1601      C1602   1.400       .  A
C1601      H1608   1.084       .  S
C1602      S1604   1.791       .  S
S1604      H1605   1.408       .  S
C1609      C1610   1.402       .  A
C1609      C1614   1.418       .  A
C1610      C1611   1.393       .  A
C1610      H1619   1.076       .  S
C1611      C1612   1.410       .  A
C1611      S1615   1.805       .  S
C1612      C1613   1.403       .  A
C1613      C1614   1.401       .  A
C1613      H1620   1.084       .  S
C1614      S1616   1.804       .  S
S1615      H1618   1.407       .  S
S1616      H1617   1.403       .  S
C1621      C1622   1.402       .  A
C1621      C1626   1.414       .  A
C1622      C1623   1.402       .  A
C1622      H1631   1.083       .  S
C1623      C1624   1.414       .  A
C1623      S1627   1.802       .  S
C1624      C1625   1.405       .  A
C1625      C1626   1.399       .  A
C1625      H1632   1.082       .  S
C1626      S1628   1.803   1_655  S
S1627      H1630   1.406       .  S
S1628      H1629   1.407       .  S
C1633      C1634   1.402       .  A
C1633      C1638   1.416       .  A
C1634      C1635   1.392       .  A
C1634      H1643   1.084       .  S
C1635      C1636   1.413       .  A
C1635      S1639   1.794       .  S
C1636      C1637   1.404       .  A
C1637      C1638   1.401       .  A
C1637      H1644   1.083       .  S
C1638      S1640   1.801       .  S
S1639      H1642   1.392       .  S
S1640      H1641   1.408       .  S
C1645      C1646   1.404       .  A
C1645      C1650   1.419       .  A
C1646      C1647   1.398       .  A
C1646      H1655   1.074       .  S
C1647      C1648   1.410       .  A
C1647      S1651   1.795       .  S
C1648      C1649   1.401       .  A
C1649      C1650   1.402       .  A
C1649      H1656   1.084       .  S
C1650      S1652   1.790       .  S
S1651      H1654   1.407       .  S
S1652      H1653   1.408       .  S
C1657      C1658   1.398       .  A
C1657      C1662   1.416       .  A
C1658      C1659   1.396       .  A
C1658      H1667   1.077       .  S
C1659      C1660   1.417       .  A
C1659      S1663   1.802       .  S
C1660      C1661   1.406       .  A
C1661      C1662   1.400       .  A
C1661      H1668   1.084       .  S
C1662      S1664   1.807       .  S
S1663      H1666   1.407       .  S
S1664      H1665   1.401       .  S
C1669      C1670   1.399       .  A
C1669      C1674   1.412       .  A
C1670      C1671   1.402       .  A
C1670      H1679   1.083       .  S
C1671      C1672   1.418       .  A
C1671      S1675   1.801       .  S
C1672      C1673   1.406       .  A
C1673      C1674   1.398       .  A
C1673      H1680   1.080       .  S
C1674      S1676   1.803       .  S
S1675      H1678   1.406       .  S
S1676      H1677   1.407       .  S
