geometry optimzed in LAMMPS
_audit_creation_date              2020-12-01 
_audit_creation_method            'lammps2cif' 
_symmetry_space_group_name_H-M    'P1' 
_symmetry_Int_Tables_number       1 
_symmetry_cell_setting            triclinic 
loop_ 
_symmetry_equiv_pos_as_xyz 
  x,y,z 
_cell_length_a                    44.95219138 
_cell_length_b                    44.152805950001046 
_cell_length_c                    44.70732778380946 
_cell_angle_alpha                 86.99955642346073 
_cell_angle_beta                  88.95786671238993 
_cell_angle_gamma                 89.57296704969254 
loop_ 
_atom_site_label 
_atom_site_type_symbol 
_atom_site_fract_x 
_atom_site_fract_y 
_atom_site_fract_z 
_atom_site_charge 
C1          C  0.78551351  0.48915031  0.02637464     0.86800
C2          C  0.76694497  0.51778445  0.03224928    -0.53400
C3          C  0.74986710  0.52790036  0.00840873     0.09800
C4          C  0.75525128  0.50986291  0.98024348     0.20700
C5          C  0.76208336  0.46666072  0.01579174    -0.54100
C6          C  0.74575077  0.47783742  0.99183904     0.09900
C7          C  0.80434926  0.49734306  0.99894369    -0.53700
C8          C  0.78933602  0.50820545  0.97500410     0.10400
H9          H  0.76401952  0.52611303  0.05454705     0.15000
H10         H  0.74299783  0.51905180  0.96040089     0.00700
H11         H  0.75670213  0.44542185  0.02789069     0.15300
H12         H  0.82851635  0.49520898  0.99857128     0.15000
C13         C  0.54230273  0.73868754  0.01036216     0.86800
C14         C  0.54597735  0.75897123  0.98142824    -0.53400
C15         C  0.52202315  0.77782217  0.97522743     0.09800
C16         C  0.49548211  0.77181279  0.99716301     0.20700
C17         C  0.53379399  0.76150548  0.03429775    -0.54100
C18         C  0.50941848  0.77931020  0.02719285     0.09900
C19         C  0.51459919  0.72055993  0.00611088    -0.53700
C20         C  0.49010041  0.73695703  0.99927178     0.10400
H21         H  0.56724770  0.76134796  0.96967912     0.15000
H22         H  0.47530768  0.78525726  0.99122684     0.00700
H23         H  0.54709564  0.76487554  0.05383621     0.15300
H24         H  0.51450329  0.69585955  0.00776461     0.15000
C25         C  0.04176992  0.50479225  0.76229873     0.86800
C26         C  0.04782078  0.47768242  0.74257169    -0.53400
C27         C  0.02312703  0.46904874  0.72718033     0.09800
C28         C  0.99471163  0.48740276  0.73491451     0.20700
C29         C  0.02851085  0.52911145  0.73985590    -0.54100
C30         C  0.00406513  0.51970852  0.72512049     0.09900
C31         C  0.01636591  0.49456731  0.78304107    -0.53700
C32         C  0.99128801  0.48660094  0.76947073     0.10400
H33         H  0.07003379  0.46880436  0.73862945     0.15000
H34         H  0.97438686  0.47927568  0.72431023     0.00700
H35         H  0.03899670  0.55075898  0.73423882     0.15300
H36         H  0.01678544  0.49799966  0.80699338     0.15000
C37         C  0.52286068  0.02839473  0.72534379     0.86800
C38         C  0.50819690  0.04991907  0.74736218    -0.53400
C39         C  0.48603822  0.03670776  0.76494669     0.09800
C40         C  0.48000750  0.00353770  0.75803117     0.20700
C41         C  0.53304255  0.00121973  0.74577497    -0.54100
C42         C  0.51081222  0.98893896  0.76412575     0.09900
C43         C  0.49776600  0.01665044  0.70742546    -0.53700
C44         C  0.47533977  0.00377888  0.72367113     0.10400
H45         H  0.51663909  0.07239136  0.75096391     0.15000
H46         H  0.46149158  0.99294475  0.77149410     0.00700
H47         H  0.55636049  0.99540611  0.74863151     0.15300
H48         H  0.49797000  0.01790726  0.68301708     0.15000
C49         C  0.72578582  0.01734321  0.53331376     0.86800
C50         C  0.74341639  0.98842049  0.54269277    -0.53400
C51         C  0.75990728  0.97697312  0.51935611     0.09800
C52         C  0.75521409  0.99450649  0.48903745     0.20700
C53         C  0.74995088  0.03847394  0.51887733    -0.54100
C54         C  0.76618378  0.02622756  0.49624174     0.09900
C55         C  0.70653786  0.00818802  0.50811046    -0.53700
C56         C  0.72115061  0.99672524  0.48483737     0.10400
H57         H  0.74632242  0.98086473  0.56596288     0.15000
H58         H  0.76685058  0.98429428  0.46993166     0.00700
H59         H  0.75579140  0.05977063  0.52819960     0.15300
H60         H  0.68275699  0.01316513  0.50747889     0.15000
C61         C  0.01270366  0.76580856  0.48367908     0.86800
C62         C  0.00929182  0.74517629  0.51269062    -0.53400
C63         C  0.98198256  0.73142406  0.51585608     0.09800
C64         C  0.96061746  0.74082363  0.49049087     0.20700
C65         C  0.00522341  0.74427591  0.45862356    -0.54100
C66         C  0.97782146  0.73067937  0.46247094     0.09900
C67         C  0.98696329  0.78810763  0.48411009    -0.53700
C68         C  0.95996361  0.77565808  0.48802771     0.10400
H69         H  0.02751143  0.74008173  0.52777671     0.15000
H70         H  0.93813794  0.73119976  0.49363921     0.00700
H71         H  0.02082462  0.73873653  0.44092561     0.15300
H72         H  0.99010316  0.81257022  0.48392931     0.15000
C73         C  0.23362455  0.51557063  0.03033916     0.86800
C74         C  0.25267006  0.48660957  0.03526247    -0.53400
C75         C  0.27167657  0.48104904  0.01144291     0.09800
C76         C  0.26772673  0.50383750  0.98431991     0.20700
C77         C  0.25726201  0.54027664  0.02201583    -0.54100
C78         C  0.27552264  0.53387210  0.99819336     0.09900
C79         C  0.21701040  0.51104598  0.00194135    -0.53700
C80         C  0.23392392  0.50518886  0.97782303     0.10400
H81         H  0.25423478  0.47457360  0.05698310     0.15000
H82         H  0.28166089  0.49844630  0.96453782     0.00700
H83         H  0.26127282  0.55948589  0.03548088     0.15300
H84         H  0.19308868  0.51484388  0.00037720     0.15000
O85         O  0.98055112  0.48244320  0.01512852    -0.72600
O86         O  0.04687301  0.49675177  0.95301868    -0.73600
O87         O  0.04373421  0.49093409  0.01831345    -0.62200
O88         O  0.98196897  0.49077851  0.95019983    -0.70600
O89         O  0.97649464  0.54034256  0.95368665    -0.70200
O90         O  0.03683197  0.54052056  0.02024711    -0.61400
O91         O  0.04141137  0.54644477  0.95522090    -0.73900
O92         O  0.97356959  0.53183321  0.01880186    -0.72700
Cu93       Cu  0.01348541  0.48857277  0.98391876     1.04600
Cu94       Cu  0.00685867  0.54149443  0.98690772     1.04300
C95         C  0.96718929  0.50434747  0.02735511     0.93600
C96         C  0.05512727  0.52354022  0.94459473     0.92700
C97         C  0.04929575  0.51607937  0.03030905     0.84900
C98         C  0.96917579  0.51587129  0.94173699     0.91200
N99         N  0.90312354  0.53133723  0.88015146    -0.03100
C100        C  0.87737302  0.54584371  0.88781296    -0.00500
C101        C  0.86569413  0.56167441  0.86327439    -0.23400
C102        C  0.88371293  0.55598956  0.83943093    -0.23600
C103        C  0.90646763  0.53715627  0.84995506    -0.00600
H104        H  0.84421235  0.57289748  0.86200589     0.13100
H105        H  0.87888239  0.56283475  0.81643767     0.13200
C106        C  0.98266447  0.52702564  0.26839547     0.86800
C107        C  0.01074360  0.53699364  0.25005122    -0.53400
C108        C  0.02298508  0.51463629  0.23315869     0.09800
C109        C  0.00737936  0.48391032  0.23866343     0.20700
C110        C  0.96230496  0.51430253  0.24446832    -0.54100
C111        C  0.97559601  0.49204722  0.22817965     0.09900
C112        C  0.99208945  0.49977738  0.28769317    -0.53700
C113        C  0.00500821  0.47732913  0.27295751     0.10400
H114        H  0.01729450  0.56060261  0.24721809     0.15000
H115        H  0.01858423  0.46530971  0.22709560     0.00700
H116        H  0.94077761  0.52408252  0.23893941     0.15300
H117        H  0.98964297  0.49870002  0.31201295     0.15000
N118        N  0.91474130  0.46785676  0.09495163    -0.03100
C119        C  0.92919693  0.45254321  0.11770248    -0.00500
C120        C  0.91567188  0.42496849  0.12469532    -0.23400
C121        C  0.89144802  0.42359958  0.10704236    -0.23600
C122        C  0.89080236  0.45026955  0.08941658    -0.00600
H123        H  0.92039780  0.40932184  0.14348854     0.13100
H124        H  0.87437092  0.40646835  0.10949019     0.13200
N125        N  0.12412979  0.53600492  0.88258462    -0.03100
C126        C  0.11872822  0.54542446  0.85363698    -0.00500
C127        C  0.14243743  0.56125530  0.84095960    -0.23400
C128        C  0.16382885  0.56111953  0.86202292    -0.23600
C129        C  0.15268713  0.54517885  0.88728058    -0.00600
H130        H  0.14499432  0.56942680  0.81779984     0.13100
H131        H  0.18628589  0.56918645  0.85799225     0.13200
O132        O  0.47931342  0.55040905  0.97246326    -0.72600
O133        O  0.54205343  0.48457086  0.96961435    -0.73600
O134        O  0.47779374  0.48506412  0.97198694    -0.62200
O135        O  0.54415332  0.54959097  0.97299138    -0.70600
O136        O  0.54259781  0.54486139  0.02258868    -0.70200
O137        O  0.47872335  0.48162252  0.02160526    -0.61400
O138        O  0.54290128  0.47977735  0.01917804    -0.73900
O139        O  0.47784664  0.54688784  0.02207696    -0.72700
Cu140      Cu  0.51082897  0.51763541  0.97006238     1.04600
Cu141      Cu  0.51052278  0.51322906  0.02306013     1.04300
C142        C  0.46819441  0.55878334  0.99718674     0.93600
C143        C  0.55238836  0.47168504  0.99346292     0.92700
C144        C  0.46811201  0.47322634  0.99714955     0.84900
C145        C  0.55396299  0.55681093  0.99848251     0.91200
N146        N  0.62190520  0.60903758  0.02371588    -0.03100
C147        C  0.64630563  0.59551310  0.03630039    -0.00500
C148        C  0.65715325  0.61246970  0.05874400    -0.23400
C149        C  0.63925731  0.63740858  0.06020775    -0.23600
C150        C  0.61794855  0.63500447  0.03858232    -0.00600
H151        H  0.67731979  0.60822005  0.07120775     0.13100
H152        H  0.64256244  0.65625888  0.07429819     0.13200
C153        C  0.49728214  0.24110535  0.95853591     0.86800
C154        C  0.47463668  0.26540945  0.96883310    -0.53400
C155        C  0.48318501  0.28049665  0.99318237     0.09800
C156        C  0.51323231  0.26949377  0.00543031     0.20700
C157        C  0.52618398  0.25926273  0.95346838    -0.54100
C158        C  0.53403078  0.27552111  0.97771238     0.09900
C159        C  0.50295680  0.22051761  0.98599596    -0.53700
C160        C  0.51064294  0.23454743  0.01075476     0.10400
H161        H  0.45498515  0.27237942  0.95659896     0.15000
H162        H  0.52024382  0.28097108  0.02557510     0.00700
H163        H  0.53712482  0.26182865  0.93165764     0.15300
H164        H  0.49762799  0.19646038  0.98669616     0.15000
O165        O  0.51507278  0.98903278  0.03592862    -0.72600
O166        O  0.50820187  0.05537752  0.96798348    -0.73600
O167        O  0.50572683  0.05424851  0.03316116    -0.62200
O168        O  0.51912919  0.99092559  0.97148060    -0.70600
O169        O  0.47065200  0.98264859  0.96938608    -0.70200
O170        O  0.45707124  0.04685432  0.03205080    -0.61400
O171        O  0.45965878  0.04711148  0.96707100    -0.73900
O172        O  0.46641839  0.98189029  0.03372824    -0.72700
Cu173      Cu  0.51368871  0.02273948  0.00222602     1.04600
Cu174      Cu  0.46177854  0.01445350  0.00055530     1.04300
C175        C  0.49154802  0.97479313  0.04507158     0.93600
C176        C  0.48264794  0.06110111  0.95656330     0.92700
C177        C  0.47946669  0.06047926  0.04252195     0.84900
C178        C  0.49737425  0.97676762  0.96080309     0.91200
N179        N  0.52904800  0.91724665  0.90125661    -0.03100
C180        C  0.54442251  0.89152996  0.90966982    -0.00500
C181        C  0.56735849  0.88646081  0.88946413    -0.23400
C182        C  0.56622414  0.90936558  0.86782563    -0.23600
C183        C  0.54260615  0.92780588  0.87529476    -0.00600
H184        H  0.58202748  0.86690877  0.88931291     0.13100
H185        H  0.57958888  0.91099064  0.84741691     0.13200
C186        C  0.51550271  0.01271292  0.27148101     0.86800
C187        C  0.51494471  0.98608426  0.25033944    -0.53400
C188        C  0.48840219  0.98370323  0.23555521     0.09800
C189        C  0.46484973  0.00738376  0.24481072     0.20700
C190        C  0.50707845  0.04045984  0.25075900    -0.54100
C191        C  0.48082907  0.03740310  0.23605288     0.09900
C192        C  0.48932307  0.00746361  0.29258023    -0.53700
C193        C  0.46295932  0.00459550  0.27947304     0.10400
H194        H  0.53431423  0.97211179  0.24591269     0.15000
H195        H  0.44291701  0.00554344  0.23426924     0.00700
H196        H  0.52203624  0.05933218  0.24590557     0.15300
H197        H  0.49135417  0.00741486  0.31683507     0.15000
N198        N  0.48266483  0.90482673  0.10785462    -0.03100
C199        C  0.47632027  0.87567508  0.10155194    -0.00500
C200        C  0.46272278  0.86055998  0.12586277    -0.23400
C201        C  0.46028503  0.88068162  0.14790494    -0.23600
C202        C  0.47251616  0.90759381  0.13653858    -0.00600
H203        H  0.45626739  0.83695547  0.12769184     0.13100
H204        H  0.45149136  0.87589048  0.17034685     0.13200
N205        N  0.46161346  0.11764300  0.88476286    -0.03100
C206        C  0.44783587  0.10668714  0.86074332    -0.00500
C207        C  0.43114488  0.12928566  0.84629531    -0.23400
C208        C  0.43500827  0.15502741  0.86136287    -0.23600
C209        C  0.45382856  0.14747836  0.88472799    -0.00600
H210        H  0.41989234  0.12803168  0.82519096     0.13100
H211        H  0.42650829  0.17735842  0.85482435     0.13200
O212        O  0.96283857  0.52222277  0.46281582    -0.72600
O213        O  0.97770945  0.45746506  0.52851475    -0.73600
O214        O  0.96307964  0.52136960  0.52712993    -0.62200
O215        O  0.97929224  0.45863480  0.46380173    -0.70600
O216        O  0.02689292  0.47137071  0.46354670    -0.70200
O217        O  0.01098378  0.53302475  0.52628017    -0.61400
O218        O  0.02564824  0.46883294  0.52844361    -0.73900
O219        O  0.01042245  0.53509629  0.46172476    -0.72700
Cu220      Cu  0.96912593  0.48949540  0.49560048     1.04600
Cu221      Cu  0.02016263  0.50244531  0.49496320     1.04300
C222        C  0.98386219  0.53905572  0.45210455     0.93600
C223        C  0.00371228  0.45279785  0.53889018     0.92700
C224        C  0.98458391  0.53718582  0.53635928     0.84900
C225        C  0.00598502  0.45533139  0.45375889     0.91200
N226        N  0.96345006  0.59886980  0.59874055    -0.03100
C227        C  0.95377356  0.58943998  0.62666915    -0.00500
C228        C  0.93509089  0.61078035  0.63861886    -0.23400
C229        C  0.93341954  0.63442262  0.61780481    -0.23600
C230        C  0.95107446  0.62689925  0.59354540    -0.00600
H231        H  0.92592190  0.61043894  0.66119799     0.13100
H232        H  0.92237324  0.65588764  0.62110701     0.13200
O233        O  0.47121281  0.98019662  0.46860447    -0.72600
O234        O  0.53661845  0.99156902  0.53211997    -0.73600
O235        O  0.47339943  0.97880089  0.53327310    -0.62200
O236        O  0.53605912  0.98939572  0.46717136    -0.70600
O237        O  0.52845632  0.03903106  0.46416891    -0.70200
O238        O  0.46352309  0.02806552  0.53170447    -0.61400
O239        O  0.52667350  0.04082129  0.52885095    -0.73900
O240        O  0.46396618  0.02990072  0.46693876    -0.72700
Cu241      Cu  0.50464617  0.98328448  0.50029476     1.04600
Cu242      Cu  0.49539881  0.03611828  0.49774550     1.04300
C243        C  0.45690098  0.00383663  0.45843090     0.93600
C244        C  0.54145104  0.01856288  0.54041766     0.92700
C245        C  0.45859349  0.00110702  0.54299536     0.84900
C246        C  0.54269194  0.01552844  0.45545988     0.91200
N247        N  0.59830501  0.05449686  0.59858001    -0.03100
C248        C  0.58671721  0.07214009  0.61997053    -0.00500
C249        C  0.60291999  0.09844745  0.62170635    -0.23400
C250        C  0.62601423  0.09659971  0.60176926    -0.23600
C251        C  0.62314212  0.06926692  0.58837840    -0.00600
H252        H  0.60078944  0.11501868  0.63864301     0.13100
H253        H  0.64493353  0.11166731  0.60018248     0.13200
C254        C  0.22547912  0.02392768  0.53478144     0.86800
C255        C  0.24830132  0.01072677  0.55754422    -0.53400
C256        C  0.26381858  0.98590823  0.54780357     0.09800
C257        C  0.25344929  0.97591859  0.51711348     0.20700
C258        C  0.24447029  0.02966067  0.50587001    -0.54100
C259        C  0.26009787  0.00454271  0.49720017     0.09900
C260        C  0.20538837  0.99783219  0.52876707    -0.53700
C261        C  0.21922761  0.97297084  0.51948063     0.10400
H262        H  0.25404430  0.02208505  0.57756592     0.15000
H263        H  0.26446906  0.95521170  0.50918165     0.00700
H264        H  0.24837279  0.05225059  0.49587892     0.15300
H265        H  0.18121475  0.99946093  0.53033278     0.15000
O266        O  0.03122248  0.02429806  0.53412637    -0.72600
O267        O  0.96721771  0.96351658  0.52305405    -0.73600
O268        O  0.03124927  0.95866237  0.52730863    -0.62200
O269        O  0.96734535  0.02839898  0.52493524    -0.70600
O270        O  0.97500886  0.03313377  0.47584883    -0.70200
O271        O  0.03598327  0.96578092  0.47809612    -0.61400
O272        O  0.97143603  0.96821684  0.47358174    -0.73900
O273        O  0.03865641  0.03133927  0.48517943    -0.72700
Cu274      Cu  0.99918329  0.99352388  0.52904481     1.04600
Cu275      Cu  0.00562654  0.99979663  0.47649415     1.04300
C276        C  0.04480584  0.03790275  0.51214360     0.93600
C277        C  0.95857518  0.95651704  0.49741965     0.92700
C278        C  0.04320979  0.95119767  0.50226038     0.84900
C279        C  0.96104899  0.04114843  0.49919441     0.91200
N280        N  0.89065602  0.90207623  0.52190996    -0.03100
C281        C  0.86988981  0.91517417  0.53972753    -0.00500
C282        C  0.86286358  0.89625991  0.56436310    -0.23400
C283        C  0.87878345  0.87025292  0.56149115    -0.23600
C284        C  0.89555420  0.87409569  0.53534554    -0.00600
H285        H  0.84505692  0.89941236  0.58057227     0.13100
H286        H  0.87619824  0.84979135  0.57567190     0.13200
C287        C  0.96678511  0.22762855  0.48238019     0.86800
C288        C  0.96085291  0.24891026  0.50845474    -0.53400
C289        C  0.98588050  0.26400279  0.51707514     0.09800
C290        C  0.01440965  0.25443551  0.50023179     0.20700
C291        C  0.98176590  0.24886346  0.45800105    -0.54100
C292        C  0.00656001  0.26326093  0.46757744     0.09900
C293        C  0.99127734  0.20617339  0.49308572    -0.53700
C294        C  0.01577447  0.21950611  0.50263968     0.10400
H295        H  0.93861612  0.25383965  0.51679219     0.15000
H296        H  0.03506123  0.26478726  0.50810148     0.00700
H297        H  0.97195329  0.25482876  0.43649836     0.15300
H298        H  0.98904588  0.18158523  0.49404702     0.15000
N299        N  0.89598932  0.09721628  0.46737669    -0.03100
C300        C  0.87376693  0.08289724  0.45346718    -0.00500
C301        C  0.86560038  0.09917011  0.42762444    -0.23400
C302        C  0.88243564  0.12471778  0.42569867    -0.23600
C303        C  0.90066069  0.12344248  0.45033048    -0.00600
H304        H  0.84693100  0.09477674  0.41355219     0.13100
H305        H  0.87953893  0.14359146  0.40954053     0.13200
N306        N  0.10521092  0.88676160  0.48070644    -0.03100
C307        C  0.13373879  0.89415506  0.47215412    -0.00500
C308        C  0.14604354  0.87268498  0.45415674    -0.23400
C309        C  0.12507975  0.85121495  0.45129271    -0.23600
C310        C  0.10031727  0.85995646  0.46753513    -0.00600
H311        H  0.16870296  0.87160051  0.44564572     0.13100
H312        H  0.12821941  0.83032499  0.43994939     0.13200
N313        N  0.39989376  0.96585866  0.60572481    -0.03100
C314        C  0.37720668  0.94871927  0.59611240    -0.00500
C315        C  0.37342687  0.92308380  0.61491287    -0.23400
C316        C  0.39328904  0.92487430  0.63742362    -0.23600
C317        C  0.40895643  0.95147023  0.63184606    -0.00600
H318        H  0.35554384  0.90682927  0.61463230     0.13100
H319        H  0.39368928  0.91005377  0.65747677     0.13200
N320        N  0.00872650  0.38430947  0.60442257    -0.03100
C321        C  0.01755208  0.38532291  0.63349570    -0.00500
C322        C  0.01479949  0.35707834  0.64809635    -0.23400
C323        C  0.00371775  0.33809627  0.62803640    -0.23600
C324        C  0.00003063  0.35499572  0.60146480    -0.00600
H325        H  0.01924406  0.35115155  0.67139962     0.13100
H326        H  0.99905072  0.31422609  0.63230718     0.13200
N327        N  0.09829309  0.10039491  0.54793898    -0.03100
C328        C  0.12155168  0.09237770  0.56599073    -0.00500
C329        C  0.12265210  0.11091850  0.58989694    -0.23400
C330        C  0.10033905  0.13169912  0.58623683    -0.23600
C331        C  0.08596289  0.12535316  0.56019714    -0.00600
H332        H  0.13996374  0.11160390  0.60635864     0.13100
H333        H  0.09723718  0.15132961  0.59948432     0.13200
N334        N  0.60891674  0.02078902  0.38968765    -0.03100
C335        C  0.60388852  0.02602321  0.35984173    -0.00500
C336        C  0.62966893  0.03294956  0.34400426    -0.23400
C337        C  0.65186843  0.03174511  0.36409296    -0.23600
C338        C  0.63909947  0.02416312  0.39188801    -0.00600
H339        H  0.63215744  0.03700158  0.31999172     0.13100
H340        H  0.67528431  0.03446701  0.35860995     0.13200
N341        N  0.95068700  0.60233501  0.39164042    -0.03100
C342        C  0.93614185  0.62756109  0.40059105    -0.00500
C343        C  0.91204011  0.63412309  0.38246817    -0.23400
C344        C  0.91198725  0.61298796  0.36131934    -0.23600
C345        C  0.93609787  0.59407496  0.36690352    -0.00600
H346        H  0.89777838  0.65397250  0.38256513     0.13100
H347        H  0.89780401  0.61349894  0.34198374     0.13200
N348        N  0.61409447  0.40830722  0.97059896    -0.03100
C349        C  0.64146193  0.41579010  0.95879663    -0.00500
C350        C  0.65221130  0.39327487  0.94108454    -0.23400
C351        C  0.63121356  0.37113958  0.94178289    -0.23600
C352        C  0.60807854  0.38067954  0.95978596    -0.00600
H353        H  0.67394858  0.39218489  0.93033666     0.13100
H354        H  0.63306962  0.34967788  0.93122593     0.13200
N355        N  0.46451826  0.12273425  0.10661566    -0.03100
C356        C  0.45082622  0.11512606  0.13341454    -0.00500
C357        C  0.43634898  0.13996388  0.14442078    -0.23400
C358        C  0.44197407  0.16391187  0.12470988    -0.23600
C359        C  0.45962597  0.15322270  0.10172559    -0.00600
H360        H  0.42562945  0.14133122  0.16619464     0.13100
H361        H  0.43578855  0.18713338  0.12847820     0.13200
N362        N  0.40105692  0.61929468  0.97862241    -0.03100
C363        C  0.37475253  0.61027207  0.96719460    -0.00500
C364        C  0.36229521  0.63339619  0.94945008    -0.23400
C365        C  0.38097865  0.65752535  0.94981033    -0.23600
C366        C  0.40454468  0.64867476  0.96775668    -0.00600
H367        H  0.34081668  0.63334667  0.93888078     0.13100
H368        H  0.37688841  0.67981134  0.93938841     0.13200
N369        N  0.10090112  0.53495273  0.10126842    -0.03100
C370        C  0.08812609  0.54755097  0.12570412    -0.00500
C371        C  0.10653904  0.56905071  0.13674085    -0.23400
C372        C  0.13165195  0.56970548  0.11934230    -0.23600
C373        C  0.12803670  0.54861567  0.09792836    -0.00600
H374        H  0.10330861  0.58077028  0.15723922     0.13100
H375        H  0.15148592  0.58247532  0.12348064     0.13200
N376        N  0.03960864  0.39558545  0.39508909    -0.03100
C377        C  0.05446013  0.37055228  0.40603754    -0.00500
C378        C  0.07904980  0.36485010  0.38807591    -0.23400
C379        C  0.07885514  0.38616311  0.36481336    -0.23600
C380        C  0.05416146  0.40438509  0.36907951    -0.00600
H381        H  0.09354507  0.34517092  0.38955481     0.13100
H382        H  0.09320304  0.38599310  0.34511767     0.13200
N383        N  0.38348962  0.01395083  0.40585065    -0.03100
C384        C  0.35681558  0.02225591  0.41810731    -0.00500
C385        C  0.33899865  0.03676705  0.39702003    -0.23400
C386        C  0.35447930  0.03746862  0.37067820    -0.23600
C387        C  0.38166232  0.02350651  0.37623125    -0.00600
H388        H  0.31614171  0.04404457  0.40011875     0.13100
H389        H  0.34583230  0.04568883  0.34931686     0.13200
N390        N  0.40678691  0.40917368  0.02039754    -0.03100
C391        C  0.41554156  0.38215908  0.03373588    -0.00500
C392        C  0.39533536  0.37265280  0.05590473    -0.23400
C393        C  0.37328811  0.39406213  0.05624909    -0.23600
C394        C  0.38058841  0.41609672  0.03436100    -0.00600
H395        H  0.39540309  0.35126630  0.06888982     0.13100
H396        H  0.35297443  0.39268915  0.06961055     0.13200
C397        C  0.03721167  0.19496474  0.54810944    -0.13000
C398        C  0.03854240  0.19982811  0.51697295     0.09200
C399        C  0.05408992  0.17892660  0.49973261    -0.13000
C400        C  0.06842395  0.15373042  0.51349647    -0.13000
C401        C  0.06691830  0.14868830  0.54473897     0.09200
C402        C  0.05102209  0.16958882  0.56182134    -0.13000
H403        H  0.02398122  0.20984275  0.56165377     0.13100
H404        H  0.05413701  0.18156764  0.47550692     0.13100
H405        H  0.08097368  0.13851218  0.49976027     0.13100
H406        H  0.04919721  0.16630643  0.58594979     0.13100
C407        C  0.92803227  0.17115181  0.43644461    -0.13000
C408        C  0.91631187  0.15108303  0.45904046     0.09200
C409        C  0.91536797  0.16032607  0.48856550    -0.13000
C410        C  0.92750736  0.18829952  0.49549158    -0.13000
C411        C  0.94151735  0.20740470  0.47313058     0.09200
C412        C  0.94039278  0.19876723  0.44330278    -0.13000
H413        H  0.92843378  0.16504657  0.41329874     0.13100
H414        H  0.90535980  0.14589666  0.50628210     0.13100
H415        H  0.92854422  0.19368728  0.51879544     0.13100
H416        H  0.95123963  0.21186721  0.42521137     0.13100
C417        C  0.00936102  0.33847048  0.54952677    -0.13600
C418        C  0.99021735  0.33995791  0.57441290     0.09200
C419        C  0.96664570  0.31903888  0.57763028    -0.13000
C420        C  0.96421910  0.29517764  0.55833359    -0.13000
C421        C  0.98530368  0.29170945  0.53524365     0.09200
C422        C  0.00682154  0.31473878  0.53006758    -0.13000
H423        H  0.02790370  0.35394410  0.54662408     0.13100
H424        H  0.95164971  0.31953969  0.59684825     0.13100
H425        H  0.94707377  0.27837734  0.56280003     0.13100
H426        H  0.02266969  0.31395339  0.51168532     0.13100
C427        C  0.04909908  0.29754849  0.45352270    -0.13000
C428        C  0.01864881  0.29129993  0.45231270     0.09200
C429        C  0.99949256  0.31337950  0.43921120    -0.13000
C430        C  0.01081815  0.34056871  0.42630497    -0.13000
C431        C  0.04151133  0.34620460  0.42628011     0.09200
C432        C  0.06040806  0.32469117  0.44067683    -0.13000
H433        H  0.06425210  0.28118283  0.46396459     0.13100
H434        H  0.97572168  0.30965920  0.43896460     0.13100
H435        H  0.99573744  0.35642740  0.41502243     0.13100
H436        H  0.08418535  0.32837875  0.44101963     0.13100
C437        C  0.06661146  0.06118505  0.51901811    -0.12900
C438        C  0.08237625  0.07984529  0.53050484    -0.14500
C439        C  0.08345182  0.90695359  0.49270099    -0.12900
C440        C  0.06507090  0.92617851  0.50001653    -0.14500
C441        C  0.91800887  0.08097357  0.48446642    -0.12900
C442        C  0.93740588  0.06407406  0.49496968    -0.14500
C443        C  0.93355007  0.93556662  0.49703759    -0.12900
C444        C  0.91291433  0.91927186  0.50574119    -0.14500
C445        C  0.16567272  0.06068039  0.58015538    -0.13000
C446        C  0.14838190  0.07489906  0.55753562     0.09200
C447        C  0.16002492  0.07732714  0.52825150    -0.13000
C448        C  0.18793037  0.06477650  0.52156774    -0.13000
C449        C  0.20493315  0.04937106  0.54400096     0.09200
C450        C  0.19344445  0.04811886  0.57353573    -0.13000
H451        H  0.15745185  0.05892517  0.60310382     0.13100
H452        H  0.14763682  0.08905961  0.51056231     0.13100
H453        H  0.19512735  0.06506166  0.49832557     0.13100
H454        H  0.20475899  0.03530080  0.59125150     0.13100
C455        C  0.17627461  0.92954058  0.46568513    -0.13000
C456        C  0.15310216  0.91729834  0.48416211     0.09200
C457        C  0.15357736  0.92142683  0.51496916    -0.13000
C458        C  0.17698307  0.93724629  0.52701443    -0.13000
C459        C  0.20036250  0.94897644  0.50851690     0.09200
C460        C  0.19979605  0.94498401  0.47776632    -0.13000
H461        H  0.17651827  0.92648554  0.44178412     0.13100
H462        H  0.13654444  0.91154897  0.52978489     0.13100
H463        H  0.17648517  0.94119507  0.55074915     0.13100
H464        H  0.21675447  0.95507617  0.46296342     0.13100
C465        C  0.30492194  0.94753849  0.55514089    -0.13000
C466        C  0.29395048  0.97697869  0.55892217     0.09200
C467        C  0.31311376  0.99844065  0.57051966    -0.13000
C468        C  0.34176970  0.99009767  0.57986541    -0.13000
C469        C  0.35196982  0.96017347  0.57765361     0.09200
C470        C  0.33359529  0.93931509  0.56418782    -0.13000
H471        H  0.29104952  0.93047175  0.54603880     0.13100
H472        H  0.30598774  0.02171054  0.57258293     0.13100
H473        H  0.35519735  0.00657150  0.59049340     0.13100
H474        H  0.34079843  0.91601352  0.56228274     0.13100
C475        C  0.29841763  0.98308132  0.46236314    -0.13000
C476        C  0.28884650  0.00677992  0.48005753     0.09200
C477        C  0.30816229  0.03126641  0.48338023    -0.13000
C478        C  0.33484958  0.03357716  0.46682277    -0.13000
C479        C  0.34282602  0.01148480  0.44665062     0.09200
C480        C  0.32523622  0.98534310  0.44594891    -0.13000
H481        H  0.28437964  0.96358998  0.45986006     0.13100
H482        H  0.30222312  0.04918640  0.49804167     0.13100
H483        H  0.34760456  0.05426007  0.46728815     0.13100
H484        H  0.33033142  0.96843548  0.42986946     0.13100
C485        C  0.40962170  0.00584031  0.42231559    -0.12900
C486        C  0.43176302  0.00207818  0.43786706    -0.14500
C487        C  0.56669746  0.01794866  0.43236542    -0.12900
C488        C  0.58667090  0.01868058  0.41308715    -0.14500
C489        C  0.58047497  0.03657922  0.58031276    -0.12900
C490        C  0.56362581  0.02511346  0.56290161    -0.14500
C491        C  0.43618423  0.99468485  0.56681681    -0.12900
C492        C  0.41880435  0.98347691  0.58569817    -0.14500
C493        C  0.97680009  0.56287541  0.42923982    -0.12900
C494        C  0.96659455  0.58178817  0.41117840    -0.14500
C495        C  0.01326492  0.43324570  0.43133981    -0.12900
C496        C  0.02356630  0.41551704  0.41366274    -0.14500
C497        C  0.97907865  0.56014545  0.55823508    -0.12900
C498        C  0.97328597  0.57887491  0.57667037    -0.14500
C499        C  0.00776605  0.42898375  0.56256857    -0.12900
C500        C  0.00860135  0.40847933  0.58204513    -0.14500
C501        C  0.49568358  0.06747201  0.18838037    -0.13000
C502        C  0.47323099  0.05580938  0.20813346     0.09200
C503        C  0.44341779  0.05997581  0.19990681    -0.13000
C504        C  0.43618694  0.07660896  0.17348368    -0.13000
C505        C  0.45855591  0.08934117  0.15445764     0.09200
C506        C  0.48840377  0.08405389  0.16185409    -0.13000
H507        H  0.51893580  0.06399580  0.19344785     0.13100
H508        H  0.42554580  0.05139971  0.21445252     0.13100
H509        H  0.41298050  0.08113477  0.16875703     0.13100
H510        H  0.50606537  0.09442296  0.14814555     0.13100
C511        C  0.45599860  0.95725547  0.19997599    -0.13000
C512        C  0.48460144  0.96574085  0.20839375     0.09200
C513        C  0.50892044  0.95883262  0.18944977    -0.13000
C514        C  0.50476873  0.94261812  0.16362960    -0.13000
C515        C  0.47624146  0.93323259  0.15613387     0.09200
C516        C  0.45189105  0.94144528  0.17415783    -0.13000
H517        H  0.43669436  0.96162913  0.21391608     0.13100
H518        H  0.53122238  0.96564228  0.19464344     0.13100
H519        H  0.52400799  0.93576202  0.15062818     0.13100
H520        H  0.42974980  0.93372565  0.16932371     0.13100
C521        C  0.41863546  0.03023914  0.29933262    -0.13000
C522        C  0.43640458  0.00421717  0.29936588     0.09200
C523        C  0.43573998  0.98384626  0.32480368    -0.13000
C524        C  0.41887977  0.99030683  0.35038627    -0.13000
C525        C  0.40236363  0.01728147  0.35096595     0.09200
C526        C  0.40210349  0.03686308  0.32491096    -0.13000
H527        H  0.41962236  0.04677545  0.28057928     0.13100
H528        H  0.45002828  0.96395930  0.32557202     0.13100
H529        H  0.41881509  0.97430229  0.36955740     0.13100
H530        H  0.38962229  0.05794129  0.32445954     0.13100
C531        C  0.55550693  0.99062347  0.30531594    -0.13000
C532        C  0.54213237  0.01648209  0.29127939     0.09200
C533        C  0.54569999  0.04455252  0.30450888    -0.13000
C534        C  0.56294903  0.04691825  0.32986360    -0.13000
C535        C  0.57676676  0.02129110  0.34317377     0.09200
C536        C  0.57287852  0.99308629  0.33075008    -0.13000
H537        H  0.55182118  0.96833446  0.29717090     0.13100
H538        H  0.53422940  0.06472936  0.29596207     0.13100
H539        H  0.56668759  0.06909600  0.33832190     0.13100
H540        H  0.58450379  0.97320698  0.33989722     0.13100
C541        C  0.47149504  0.10161736  0.08442072    -0.12900
C542        C  0.47530767  0.08302649  0.06527639    -0.14500
C543        C  0.47923013  0.08295944  0.93108591    -0.12900
C544        C  0.47272821  0.09961118  0.90945067    -0.14500
C545        C  0.49275468  0.95012019  0.06816098    -0.12900
C546        C  0.48972038  0.92903705  0.08675949    -0.14500
C547        C  0.51346279  0.93605379  0.92119081    -0.12900
C548        C  0.50372138  0.95394631  0.93894638    -0.14500
C549        C  0.51606220  0.18861185  0.04542686    -0.13000
C550        C  0.50350215  0.21763993  0.03945213     0.09200
C551        C  0.47726628  0.22527355  0.05455501    -0.13000
C552        C  0.46285614  0.20394649  0.07371997    -0.13000
C553        C  0.47465508  0.17445470  0.07913717     0.09200
C554        C  0.50193816  0.16733160  0.06527459    -0.13000
H555        H  0.53585069  0.18182197  0.03324564     0.13100
H556        H  0.46628887  0.24676279  0.04938327     0.13100
H557        H  0.44176348  0.21051295  0.08348629     0.13100
H558        H  0.51226736  0.14534150  0.06945143     0.13100
C559        C  0.44622140  0.19354723  0.91300119    -0.13000
C560        C  0.46562655  0.17082886  0.90371575     0.09200
C561        C  0.49619252  0.17368155  0.90856427    -0.13000
C562        C  0.50689955  0.19861040  0.92334829    -0.13000
C563        C  0.48720712  0.22096259  0.93388585     0.09200
C564        C  0.45668456  0.21805290  0.92791743    -0.13000
H565        H  0.42256674  0.19207428  0.90908858     0.13100
H566        H  0.51172581  0.15687307  0.90070173     0.13100
H567        H  0.53038252  0.19952506  0.92821011     0.13100
H568        H  0.44004336  0.23333517  0.93615356     0.13100
C569        C  0.55152448  0.32173593  0.94676920    -0.13000
C570        C  0.55160106  0.30433033  0.97407684     0.09200
C571        C  0.56631109  0.31614220  0.99846276    -0.13000
C572        C  0.58193680  0.34365561  0.99504366    -0.13000
C573        C  0.58293442  0.36005758  0.96727150     0.09200
C574        C  0.56705748  0.34904791  0.94342637    -0.13000
H575        H  0.53962271  0.31425462  0.92769920     0.13100
H576        H  0.56675755  0.30356604  0.01987182     0.13100
H577        H  0.59503382  0.35093738  0.01343231     0.13100
H578        H  0.56825137  0.36073190  0.92152659     0.13100
C579        C  0.46791939  0.31529476  0.03341117    -0.13000
C580        C  0.46819014  0.30859170  0.00308461     0.09200
C581        C  0.45493192  0.32941620  0.98228112    -0.13000
C582        C  0.44019526  0.35538066  0.99188781    -0.13000
C583        C  0.43834569  0.36093752  0.02246416     0.09200
C584        C  0.45302808  0.34103376  0.04299367    -0.13000
H585        H  0.47817733  0.30006354  0.04999278     0.13100
H586        H  0.45559800  0.32549340  0.95858342     0.13100
H587        H  0.42864646  0.37000735  0.97566270     0.13100
H588        H  0.45169253  0.34461799  0.06677017     0.13100
C589        C  0.44501736  0.45005986  0.99898108    -0.12900
C590        C  0.42659943  0.43083054  0.00658946    -0.14500
C591        C  0.44409787  0.58146646  0.99602147    -0.12900
C592        C  0.42394654  0.59947283  0.98985771    -0.14500
C593        C  0.57860627  0.57793242  0.00110410    -0.12900
C594        C  0.59910663  0.59333781  0.00934713    -0.14500
C595        C  0.57489774  0.44778754  0.99042449    -0.12900
C596        C  0.59322981  0.42882418  0.98300107    -0.14500
C597        C  0.03026874  0.54796632  0.18597575    -0.13000
C598        C  0.03803791  0.52172924  0.20343801     0.09200
C599        C  0.05767151  0.50073819  0.19077234    -0.13000
C600        C  0.07098485  0.50698389  0.16244313    -0.13000
C601        C  0.06485017  0.53433054  0.14614000     0.09200
C602        C  0.04355214  0.55416091  0.15779680    -0.13000
H603        H  0.01420720  0.56402714  0.19419451     0.13100
H604        H  0.06374676  0.48002735  0.20331165     0.13100
H605        H  0.08807429  0.49179994  0.15454424     0.13100
H606        H  0.03897977  0.57576634  0.14608008     0.13100
C607        C  0.94782865  0.50329477  0.17978202    -0.13000
C608        C  0.96508027  0.48336373  0.19825013     0.09200
C609        C  0.97446724  0.45578659  0.18683566    -0.13000
C610        C  0.96589732  0.44770016  0.15851982    -0.13000
C611        C  0.94686385  0.46647404  0.14104999     0.09200
C612        C  0.93866107  0.49482982  0.15153953    -0.13000
H613        H  0.94104569  0.52526337  0.18718897     0.13100
H614        H  0.98758328  0.43968522  0.20016440     0.13100
H615        H  0.97233375  0.42556603  0.15116496     0.13100
H616        H  0.92359796  0.50957846  0.13883028     0.13100
C617        C  0.04848504  0.45118531  0.29571305    -0.13000
C618        C  0.01774804  0.45188481  0.29134972     0.09200
C619        C  0.99900404  0.43633090  0.31247597    -0.13000
C620        C  0.01061300  0.42191618  0.33836754    -0.13000
C621        C  0.04126251  0.42254002  0.34354409     0.09200
C622        C  0.06013360  0.43665311  0.32154172    -0.13000
H623        H  0.06323253  0.46391045  0.28037019     0.13100
H624        H  0.97507941  0.43733175  0.30995236     0.13100
H625        H  0.99563935  0.41031028  0.35430408     0.13100
H626        H  0.08395169  0.43706155  0.32467478     0.13100
C627        C  0.93936639  0.54813437  0.29804357    -0.13000
C628        C  0.96966633  0.54969971  0.28963747     0.09200
C629        C  0.98914468  0.56433019  0.30865395    -0.13000
C630        C  0.97866377  0.57705557  0.33492812    -0.13000
C631        C  0.94842327  0.57550878  0.34291985     0.09200
C632        C  0.92891204  0.56105782  0.32411091    -0.13000
H633        H  0.92378733  0.53560361  0.28541679     0.13100
H634        H  0.01285613  0.56453193  0.30396974     0.13100
H635        H  0.99410013  0.58864574  0.34864589     0.13100
H636        H  0.90538740  0.55972292  0.32965865     0.13100
C637        C  0.06928988  0.51761803  0.05585606    -0.12900
C638        C  0.08447924  0.52358867  0.07728044    -0.14500
C639        C  0.08037492  0.52749323  0.92305022    -0.12900
C640        C  0.10121667  0.53031396  0.90484352    -0.14500
C641        C  0.93019124  0.48564455  0.07216430    -0.12900
C642        C  0.94562201  0.49705403  0.05172118    -0.14500
C643        C  0.92595874  0.52216360  0.90068280    -0.12900
C644        C  0.94585651  0.51723372  0.91886380    -0.14500
C645        C  0.18921605  0.50075402  0.06381352    -0.13000
C646        C  0.20999937  0.52316975  0.05384447     0.09200
C647        C  0.20194919  0.55374969  0.05709604    -0.13000
C648        C  0.17451779  0.56158457  0.06953490    -0.13000
C649        C  0.15387892  0.53933637  0.07928329     0.09200
C650        C  0.16148811  0.50873903  0.07639952    -0.13000
H651        H  0.19381483  0.47708643  0.06031616     0.13100
H652        H  0.21579025  0.57212587  0.04838574     0.13100
H653        H  0.16937530  0.58541288  0.07154488     0.13100
H654        H  0.14629655  0.49106008  0.08434377     0.13100
C655        C  0.19937587  0.55057792  0.91603839    -0.13000
C656        C  0.17357272  0.53367645  0.91084735     0.09200
C657        C  0.17133991  0.50426443  0.92410914    -0.13000
C658        C  0.19380177  0.49267762  0.94302784    -0.13000
C659        C  0.21909109  0.51012019  0.94874993     0.09200
C660        C  0.22199141  0.53876809  0.93426740    -0.13000
H661        H  0.20197068  0.57336958  0.90628407     0.13100
H662        H  0.15231245  0.49028897  0.91992156     0.13100
H663        H  0.19050843  0.47093370  0.95493728     0.13100
H664        H  0.24043316  0.55323090  0.93933210     0.13100
C665        C  0.31495089  0.55266636  0.96134603    -0.13000
C666        C  0.30411725  0.55003014  0.99098633     0.09200
C667        C  0.32127153  0.56210302  0.01360350    -0.13000
C668        C  0.34728823  0.57858143  0.00635297    -0.13000
C669        C  0.35665012  0.58327903  0.97636872     0.09200
C670        C  0.34083442  0.56910554  0.95414843    -0.13000
H671        H  0.30253692  0.54350040  0.94341922     0.13100
H672        H  0.31418293  0.55953128  0.03686264     0.13100
H673        H  0.35860133  0.58976414  0.02384663     0.13100
H674        H  0.34719209  0.57289960  0.93075967     0.13100
C675        C  0.31748962  0.47076043  0.04183727    -0.13000
C676        C  0.30113400  0.46576189  0.01604784     0.09200
C677        C  0.31449563  0.44883616  0.99356411    -0.13000
C678        C  0.34263494  0.43529881  0.99785815    -0.13000
C679        C  0.35806182  0.43890533  0.02450189     0.09200
C680        C  0.34549578  0.45740063  0.04603341    -0.13000
H681        H  0.30848070  0.48479013  0.05901638     0.13100
H682        H  0.30270409  0.44519743  0.97316612     0.13100
H683        H  0.35136388  0.42029340  0.98136676     0.13100
H684        H  0.35663056  0.45997001  0.06703340     0.13100
C685        C  0.04919445  0.80171493  0.50519025    -0.13000
C686        C  0.04052846  0.78512394  0.48053107     0.09200
C687        C  0.04977481  0.79588125  0.45174269    -0.13000
C688        C  0.06687065  0.82200519  0.44774306    -0.13000
C689        C  0.07549833  0.83837681  0.47225988     0.09200
C690        C  0.06658449  0.82794845  0.50112135    -0.13000
H691        H  0.04111338  0.79529239  0.52758883     0.13100
H692        H  0.04241955  0.78524935  0.43197520     0.13100
H693        H  0.07395883  0.82924632  0.42519462     0.13100
H694        H  0.07369738  0.83955329  0.52046431     0.13100
C695        C  0.92578862  0.81943817  0.47931029    -0.13000
C696        C  0.93620794  0.79562038  0.49857333     0.09200
C697        C  0.93310695  0.79783468  0.52952534    -0.13000
C698        C  0.92118701  0.82398480  0.54116138    -0.13000
C699        C  0.91121992  0.84822859  0.52211402     0.09200
C700        C  0.91306498  0.84546869  0.49099903    -0.13000
H701        H  0.92915957  0.81859070  0.45531694     0.13100
H702        H  0.94236026  0.78045216  0.54473160     0.13100
H703        H  0.92039766  0.82542710  0.56525505     0.13100
H704        H  0.90492903  0.86341988  0.47578623     0.13100
C705        C  0.92772169  0.67052137  0.43348804    -0.13000
C706        C  0.94789919  0.65067974  0.42012926     0.09200
C707        C  0.97838893  0.65741396  0.42032501    -0.13000
C708        C  0.98831055  0.68372672  0.43335894    -0.13000
C709        C  0.96785916  0.70402390  0.44602667     0.09200
C710        C  0.93743822  0.69702936  0.44559655    -0.13000
H711        H  0.90403272  0.66620926  0.43339634     0.13100
H712        H  0.99439702  0.64300870  0.40944467     0.13100
H713        H  0.01197830  0.68795283  0.43362918     0.13100
H714        H  0.92073167  0.71223289  0.45408489     0.13100
C715        C  0.99683851  0.68225402  0.54406897    -0.13000
C716        C  0.97513639  0.70443371  0.53638091     0.09200
C717        C  0.94549300  0.69882294  0.54527336    -0.13000
C718        C  0.93761569  0.67201708  0.56114367    -0.13000
C719        C  0.95919997  0.65024751  0.56969308     0.09200
C720        C  0.98895741  0.65545003  0.56075623    -0.13000
H721        H  0.01981958  0.68548537  0.53703448     0.13100
H722        H  0.92816398  0.71539064  0.54038108     0.13100
H723        H  0.91455057  0.66891089  0.56800880     0.13100
H724        H  0.00620450  0.63948077  0.56769816     0.13100
C725        C  0.81371646  0.05432439  0.50627595    -0.13000
C726        C  0.79652038  0.03740602  0.48701537     0.09200
C727        C  0.80912730  0.03013567  0.45932127    -0.13000
C728        C  0.83684567  0.04168023  0.45002414    -0.13000
C729        C  0.85246431  0.06111882  0.46800092     0.09200
C730        C  0.84131570  0.06618290  0.49678438    -0.13000
H731        H  0.80568355  0.05916413  0.52847222     0.13100
H732        H  0.79695745  0.01694056  0.44396769     0.13100
H733        H  0.84492515  0.03757358  0.42762252     0.13100
H734        H  0.85270392  0.08131729  0.51099360     0.13100
C735        C  0.80802883  0.97076527  0.54653630    -0.13000
C736        C  0.78903675  0.96158829  0.52411745     0.09200
C737        C  0.80000259  0.94141688  0.50321083    -0.13000
C738        C  0.82871209  0.92920014  0.50578847    -0.13000
C739        C  0.84691184  0.93695099  0.52935331     0.09200
C740        C  0.83662541  0.95848112  0.54916719    -0.13000
H741        H  0.80079442  0.98742188  0.56209498     0.13100
H742        H  0.78607861  0.93456618  0.48527644     0.13100
H743        H  0.83577207  0.91186603  0.49086540     0.13100
H744        H  0.85004345  0.96422223  0.56791513     0.13100
C745        C  0.70809565  0.02391025  0.43799577    -0.13000
C746        C  0.70468027  0.99780157  0.45668172     0.09200
C747        C  0.67834921  0.98077051  0.45512898    -0.13000
C748        C  0.65564620  0.99007738  0.43545661    -0.13000
C749        C  0.65876171  0.01690666  0.41752790     0.09200
C750        C  0.68523374  0.03364033  0.41917775    -0.13000
H751        H  0.72738847  0.03821311  0.43984302     0.13100
H752        H  0.67473488  0.96123006  0.47041986     0.13100
H753        H  0.63600330  0.97623330  0.43398744     0.13100
H754        H  0.68840833  0.05439198  0.40548206     0.13100
C755        C  0.69602200  0.06226983  0.54774518    -0.13000
C756        C  0.70500265  0.03215930  0.55528376     0.09200
C757        C  0.68568939  0.01388755  0.57359609    -0.13000
C758        C  0.65815437  0.02527372  0.58335134    -0.13000
C759        C  0.64933979  0.05497426  0.57467176     0.09200
C760        C  0.66867475  0.07332065  0.55707632    -0.13000
H761        H  0.70879734  0.07684769  0.53223065     0.13100
H762        H  0.69098687  0.99023588  0.57861505     0.13100
H763        H  0.64383318  0.01096599  0.59770869     0.13100
H764        H  0.66245662  0.09638234  0.55028318     0.13100
C765        C  0.49725150  0.06176715  0.81231979    -0.13000
C766        C  0.47625175  0.04951098  0.79346826     0.09200
C767        C  0.44612155  0.04982185  0.80192121    -0.13000
C768        C  0.43681658  0.06534592  0.82697477    -0.13000
C769        C  0.45761116  0.08027059  0.84412362     0.09200
C770        C  0.48801050  0.07688144  0.83757083    -0.13000
H771        H  0.52079041  0.06078379  0.80678355     0.13100
H772        H  0.42967838  0.03992593  0.78803872     0.13100
H773        H  0.41319290  0.06797082  0.83144459     0.13100
H774        H  0.50442492  0.08851639  0.85009110     0.13100
C775        C  0.54233408  0.98434751  0.81024728    -0.13000
C776        C  0.51754496  0.97484773  0.79439859     0.09200
C777        C  0.49801151  0.95379894  0.80874628    -0.13000
C778        C  0.50424335  0.94099002  0.83737892    -0.13000
C779        C  0.53004395  0.94911089  0.85221171     0.09200
C780        C  0.54862057  0.97142360  0.83864959    -0.13000
H781        H  0.55720276  0.00153423  0.80059243     0.13100
H782        H  0.47852302  0.94637595  0.79735006     0.13100
H783        H  0.49016191  0.92304382  0.84693046     0.13100
H784        H  0.56900515  0.97753729  0.84933868     0.13100
C785        C  0.45184192  0.95887547  0.70359629    -0.13000
C786        C  0.45135666  0.99022150  0.70670533     0.09200
C787        C  0.43647153  0.00887882  0.68511912    -0.13000
C788        C  0.42366177  0.99658928  0.66016020    -0.13000
C789        C  0.42533736  0.96531802  0.65629039     0.09200
C790        C  0.43902781  0.94656108  0.67867897    -0.13000
H791        H  0.46420718  0.94417958  0.71914541     0.13100
H792        H  0.43672698  0.03330427  0.68650847     0.13100
H793        H  0.41250260  0.01153940  0.64391657     0.13100
H794        H  0.44049598  0.92228575  0.67656444     0.13100
C795        C  0.56457038  0.02279258  0.68770977    -0.13000
C796        C  0.54528534  0.04218306  0.70312160     0.09200
C797        C  0.53904636  0.07111694  0.68978788    -0.13000
C798        C  0.55135956  0.08017371  0.66200030    -0.13000
C799        C  0.56991728  0.06048253  0.64655433     0.09200
C800        C  0.57683769  0.03189719  0.65979141    -0.13000
H801        H  0.56875992  0.99981744  0.69631917     0.13100
H802        H  0.52305228  0.08611976  0.69982289     0.13100
H803        H  0.54620654  0.10260038  0.65237187     0.13100
H804        H  0.59193296  0.01671821  0.64866889     0.13100
C805        C  0.09816418  0.50374019  0.82496756    -0.13000
C806        C  0.09620219  0.53376127  0.83379771     0.09200
C807        C  0.07935741  0.55476903  0.81673966    -0.13000
C808        C  0.06421348  0.54600692  0.79172319    -0.13000
C809        C  0.06607723  0.51598966  0.78225586     0.09200
C810        C  0.08308640  0.49488286  0.79961875    -0.13000
H811        H  0.11213593  0.48741793  0.83711308     0.13100
H812        H  0.07839219  0.57827875  0.82252989     0.13100
H813        H  0.04994693  0.56277740  0.78074682     0.13100
H814        H  0.08380229  0.47128305  0.79420907     0.13100
C815        C  0.94955969  0.52139248  0.77887439    -0.13000
C816        C  0.96367781  0.49376546  0.78623886     0.09200
C817        C  0.95815888  0.47953212  0.81474314    -0.13000
C818        C  0.93983039  0.49343489  0.83584501    -0.13000
C819        C  0.92726860  0.52213309  0.82899327     0.09200
C820        C  0.93210088  0.53558949  0.80004026    -0.13000
H821        H  0.95428052  0.53361584  0.75778050     0.13100
H822        H  0.96957858  0.45859407  0.82126112     0.13100
H823        H  0.93585350  0.48188287  0.85746580     0.13100
H824        H  0.92320230  0.55780416  0.79377603     0.13100
C825        C  0.00439948  0.45507188  0.67653293    -0.13000
C826        C  0.02483129  0.45032557  0.70006344     0.09200
C827        C  0.04671534  0.42777882  0.69716227    -0.13000
C828        C  0.04657761  0.40899755  0.67286227    -0.13000
C829        C  0.02449039  0.41206264  0.65088548     0.09200
C830        C  0.00410353  0.43605069  0.65237264    -0.13000
H831        H  0.98794273  0.47300865  0.67691351     0.13100
H832        H  0.06302159  0.42351034  0.71442331     0.13100
H833        H  0.06241722  0.39039987  0.67245771     0.13100
H834        H  0.98651736  0.43867920  0.63617654     0.13100
C835        C  0.96132943  0.53303574  0.69150102    -0.13000
C836        C  0.99159607  0.53585831  0.69805495     0.09200
C837        C  0.01010132  0.55249462  0.67755396    -0.13000
C838        C  0.99822967  0.56728314  0.65194108    -0.13000
C839        C  0.96766951  0.56586070  0.64649302     0.09200
C840        C  0.94946251  0.54806526  0.66613335    -0.13000
H841        H  0.94645904  0.52016364  0.70654642     0.13100
H842        H  0.03369524  0.55433037  0.68140669     0.13100
H843        H  0.01254485  0.58155100  0.63752505     0.13100
H844        H  0.92569697  0.54726693  0.66272504     0.13100
C845        C  0.52339786  0.82517800  0.05542617    -0.13000
C846        C  0.50138349  0.80728961  0.04299256     0.09200
C847        C  0.47159982  0.81678308  0.04503314    -0.13000
C848        C  0.46376225  0.84210629  0.06109313    -0.13000
C849        C  0.48551111  0.85879743  0.07517761     0.09200
C850        C  0.51551712  0.85068438  0.07137982    -0.13000
H851        H  0.54669013  0.81905238  0.05347807     0.13100
H852        H  0.45413136  0.80366059  0.03566754     0.13100
H853        H  0.44039251  0.84729791  0.06453960     0.13100
H854        H  0.53262058  0.86253214  0.08279213     0.13100
C855        C  0.50294539  0.82472915  0.94591582    -0.13000
C856        C  0.52645709  0.80871649  0.96014415     0.09200
C857        C  0.55392643  0.82354390  0.96217185    -0.13000
C858        C  0.55845442  0.85230644  0.94849801    -0.13000
C859        C  0.53573054  0.86739430  0.93245199     0.09200
C860        C  0.50757665  0.85377224  0.93203590    -0.13000
H861        H  0.48132146  0.81432306  0.94447347     0.13100
H862        H  0.57223313  0.81291115  0.97417830     0.13100
H863        H  0.58045113  0.86214004  0.94897969     0.13100
H864        H  0.48985503  0.86457025  0.91922632     0.13100
C865        C  0.45373141  0.71836297  0.96339920    -0.13000
C866        C  0.46292778  0.71974602  0.99300709     0.09200
C867        C  0.45307772  0.69716000  0.01436352    -0.13000
C868        C  0.43535154  0.67309312  0.00608788    -0.13000
C869        C  0.42692008  0.67118574  0.97624942     0.09200
C870        C  0.43588660  0.69440840  0.95514539    -0.13000
H871        H  0.46192424  0.73466480  0.94631640     0.13100
H872        H  0.46065631  0.69725541  0.03724674     0.13100
H873        H  0.42800561  0.65622344  0.02300234     0.13100
H874        H  0.42937588  0.69378697  0.93196832     0.13100
C875        C  0.57008226  0.70443436  0.04739153    -0.13000
C876        C  0.56715646  0.71607892  0.01766202     0.09200
C877        C  0.57977482  0.69918123  0.99454581    -0.13000
C878        C  0.59502864  0.67186860  0.00103077    -0.13000
C879        C  0.59776985  0.66066533  0.03074573     0.09200
C880        C  0.58540740  0.67738299  0.05380274    -0.13000
H881        H  0.55921193  0.71527699  0.06580196     0.13100
H882        H  0.57660277  0.70633556  0.97129175     0.13100
H883        H  0.60499904  0.65973564  0.98290609     0.13100
H884        H  0.58741526  0.66929137  0.07698511     0.13100
C885        C  0.82655789  0.49992936  0.06181165    -0.13000
C886        C  0.80701153  0.47843847  0.05062367     0.09200
C887        C  0.81546249  0.44770092  0.05303992    -0.13000
C888        C  0.84296625  0.43897036  0.06470291    -0.13000
C889        C  0.86300594  0.46057458  0.07441826     0.09200
C890        C  0.85423960  0.49112873  0.07342766    -0.13000
H891        H  0.82146478  0.52392854  0.05926429     0.13100
H892        H  0.80207785  0.43040315  0.04375659     0.13100
H893        H  0.84889686  0.41514225  0.06524410     0.13100
H894        H  0.86879155  0.50822316  0.08148451     0.13100
C895        C  0.81312836  0.54887945  0.94288207    -0.13000
C896        C  0.80716107  0.51798495  0.94833846     0.09200
C897        C  0.82606311  0.49645203  0.93554411    -0.13000
C898        C  0.85071893  0.50556403  0.91797181    -0.13000
C899        C  0.85684713  0.53643621  0.91261691     0.09200
C900        C  0.83764131  0.55803553  0.92496524    -0.13000
H901        H  0.79969302  0.56579660  0.95362082     0.13100
H902        H  0.82248574  0.47244725  0.94047334     0.13100
H903        H  0.86441974  0.48852486  0.90775142     0.13100
H904        H  0.84145603  0.58203934  0.92033923     0.13100
C905        C  0.70734017  0.46691827  0.95395656    -0.13000
C906        C  0.71657403  0.46506040  0.98378679     0.09200
C907        C  0.69700891  0.45253964  0.00602750    -0.13000
C908        C  0.66984968  0.43994725  0.99826701    -0.13000
C909        C  0.66185118  0.43953223  0.96814020     0.09200
C910        C  0.68033298  0.45418065  0.94620281    -0.13000
H911        H  0.72168163  0.47684707  0.93640349     0.13100
H912        H  0.70298792  0.45187554  0.02940825     0.13100
H913        H  0.65636334  0.42827366  0.01550593     0.13100
H914        H  0.67492527  0.45364192  0.92272057     0.13100
C915        C  0.70279698  0.53416309  0.03862845    -0.13000
C916        C  0.72039192  0.54271013  0.01328147     0.09200
C917        C  0.70860748  0.56358543  0.99175120    -0.13000
C918        C  0.68125109  0.57808044  0.99712030    -0.13000
C919        C  0.66521462  0.57160305  0.02393807     0.09200
C920        C  0.67557954  0.54850644  0.04390284    -0.13000
H921        H  0.71045479  0.51695093  0.05489450     0.13100
H922        H  0.72129119  0.56987645  0.97157864     0.13100
H923        H  0.67407830  0.59634710  0.98174479     0.13100
H924        H  0.66383539  0.54345256  0.06493235     0.13100
loop_ 
_geom_bond_atom_site_label_1 
_geom_bond_atom_site_label_2 
_geom_bond_distance 
_geom_bond_site_symmetry_2 
_ccdc_geom_bond_type 
C1            C2   1.541       .  S
C1            C7   1.507   1_554  S
C1            C5   1.550       .  S
C1          C886   1.520       .  S
C2            H9   1.086       .  S
C2            C3   1.378       .  D
C3            C4   1.539   1_554  S
C3          C916   1.491       .  S
C4            C8   1.548       .  S
C4            C6   1.541       .  S
C4           H10   1.110       .  S
C5           H11   1.084       .  S
C5            C6   1.377   1_554  D
C6          C906   1.489       .  S
C7           H12   1.090       .  S
C7            C8   1.341       .  D
C8          C896   1.472       .  S
C13          C14   1.541   1_554  S
C13          C19   1.506       .  S
C13          C17   1.549       .  S
C13         C876   1.521       .  S
C14          H21   1.086       .  S
C14          C15   1.379       .  D
C15          C16   1.546       .  S
C15         C856   1.503       .  S
C16          C20   1.557       .  S
C16          C18   1.544   1_556  S
C16          H22   1.109       .  S
C17          H23   1.085       .  S
C17          C18   1.376       .  D
C18         C846   1.494       .  S
C19          H24   1.089       .  S
C19          C20   1.344   1_554  D
C20         C866   1.482       .  S
C25          C26   1.543       .  S
C25          C31   1.514       .  S
C25          C29   1.554       .  S
C25         C809   1.525       .  S
C26          H33   1.085       .  S
C26          C27   1.383       .  D
C27          C28   1.551   1_455  S
C27         C826   1.503       .  S
C28          C32   1.548       .  S
C28          C30   1.530   1_655  S
C28          H34   1.108       .  S
C29          H35   1.084       .  S
C29          C30   1.370       .  D
C30         C836   1.488   1_455  S
C31          H36   1.090       .  S
C31          C32   1.347   1_455  D
C32         C816   1.479       .  S
C37          C38   1.540       .  S
C37          C43   1.506       .  S
C37          C41   1.541       .  S
C37         C796   1.511       .  S
C38          H45   1.086       .  S
C38          C39   1.372       .  D
C39          C40   1.540       .  S
C39         C766   1.480       .  S
C40          C44   1.554       .  S
C40          C42   1.546   1_545  S
C40          H46   1.110   1_545  S
C41          H47   1.086   1_545  S
C41          C42   1.377   1_545  D
C42         C776   1.495       .  S
C43          H48   1.090       .  S
C43          C44   1.344       .  D
C44         C786   1.477   1_545  S
C49          C50   1.541   1_545  S
C49          C55   1.507       .  S
C49          C53   1.547       .  S
C49         C756   1.513       .  S
C50          H57   1.086       .  S
C50          C51   1.384       .  D
C51          C52   1.542       .  S
C51         C736   1.484       .  S
C52          C56   1.548       .  S
C52          C54   1.540   1_565  S
C52          H58   1.108       .  S
C53          H59   1.084       .  S
C53          C54   1.369       .  D
C54         C726   1.497       .  S
C55          H60   1.090       .  S
C55          C56   1.340   1_545  D
C56         C746   1.470       .  S
C61          C62   1.551       .  S
C61          C67   1.514   1_455  S
C61          C65   1.550       .  S
C61         C686   1.519       .  S
C62          H69   1.085       .  S
C62          C63   1.375   1_455  D
C63          C64   1.538       .  S
C63         C716   1.496       .  S
C64          C68   1.536       .  S
C64          C66   1.545       .  S
C64          H70   1.103       .  S
C65          H71   1.084       .  S
C65          C66   1.378   1_455  D
C66         C709   1.496       .  S
C67          H72   1.090       .  S
C67          C68   1.341       .  D
C68         C696   1.467       .  S
C73          C74   1.542       .  S
C73          C79   1.508       .  S
C73          C77   1.555       .  S
C73         C646   1.528       .  S
C74          H81   1.085       .  S
C74          C75   1.384       .  D
C75          C76   1.547   1_554  S
C75         C676   1.494       .  S
C76          C80   1.552       .  S
C76          C78   1.539       .  S
C76          H82   1.109       .  S
C77          H83   1.083       .  S
C77          C78   1.373   1_554  D
C78         C666   1.497       .  S
C79          H84   1.090       .  S
C79          C80   1.343   1_554  D
C80         C659   1.477       .  S
O85         Cu93   2.026   1_654  S
O85          C95   1.277       .  A
O86         Cu93   2.043       .  S
O86          C96   1.278       .  A
O87         Cu93   2.078   1_554  S
O87          C97   1.286       .  A
O88         Cu93   2.086   1_655  S
O88          C98   1.287       .  A
O89         Cu94   2.038   1_655  S
O89          C98   1.278       .  A
O90         Cu94   2.026   1_554  S
O90          C97   1.277       .  A
O91         Cu94   2.088       .  S
O91          C96   1.288       .  A
O92         Cu94   2.079   1_654  S
O92          C95   1.286       .  A
Cu93        Cu94   2.364       .  S
C95         C642   1.470       .  S
C96         C639   1.481       .  S
C97         C637   1.471       .  S
C98         C644   1.476       .  S
N99         C103   1.367       .  A
N99         C100   1.366       .  A
N99         C643   1.432       .  S
C100        C101   1.379       .  A
C100        C899   1.474       .  S
C101        C102   1.360       .  A
C101        H104   1.083       .  S
C102        C103   1.387       .  A
C102        H105   1.082       .  S
C103        C819   1.489       .  S
C106        C107   1.547   1_655  S
C106        C112   1.506       .  S
C106        C110   1.550       .  S
C106        C628   1.522       .  S
C107        H114   1.086       .  S
C107        C108   1.379       .  D
C108        C109   1.538       .  S
C108        C598   1.499       .  S
C109        C113   1.547       .  S
C109        C111   1.546   1_455  S
C109        H115   1.107       .  S
C110        H116   1.084       .  S
C110        C111   1.380       .  D
C111        C608   1.497       .  S
C112        H117   1.089       .  S
C112        C113   1.341   1_655  D
C113        C618   1.475       .  S
N118        C122   1.365       .  A
N118        C119   1.364       .  A
N118        C641   1.427       .  S
C119        C120   1.383       .  A
C119        C611   1.484       .  S
C120        C121   1.360       .  A
C120        H123   1.083       .  S
C121        C122   1.383       .  A
C121        H124   1.082       .  S
C122        C889   1.486       .  S
N125        C129   1.372       .  A
N125        C126   1.364       .  A
N125        C640   1.433       .  S
C126        C127   1.376       .  A
C126        C806   1.472       .  S
C127        C128   1.358       .  A
C127        H130   1.083       .  S
C128        C129   1.387       .  A
C128        H131   1.082       .  S
C129        C656   1.491       .  S
O132       Cu140   2.023       .  S
O132        C142   1.276       .  A
O133       Cu140   2.018       .  S
O133        C143   1.275       .  A
O134       Cu140   2.072       .  S
O134        C144   1.285       .  A
O135       Cu140   2.076       .  S
O135        C145   1.286       .  A
O136       Cu141   2.014       .  S
O136        C145   1.275   1_554  A
O137       Cu141   2.009       .  S
O137        C144   1.275   1_554  A
O138       Cu141   2.077       .  S
O138        C143   1.286   1_554  A
O139       Cu141   2.081       .  S
O139        C142   1.287   1_554  A
Cu140      Cu141   2.367   1_556  S
C142        C591   1.470       .  S
C143        C595   1.466       .  S
C144        C589   1.461       .  S
C145        C593   1.464   1_556  S
N146        C150   1.364       .  A
N146        C147   1.362       .  A
N146        C594   1.423       .  S
C147        C148   1.381       .  A
C147        C919   1.474       .  S
C148        C149   1.362       .  A
C148        H151   1.083       .  S
C149        C150   1.382       .  A
C149        H152   1.082       .  S
C150        C879   1.478       .  S
C153        C154   1.555       .  S
C153        C159   1.513       .  S
C153        C157   1.539       .  S
C153        C563   1.529       .  S
C154        H161   1.082       .  S
C154        C155   1.368       .  D
C155        C156   1.533   1_556  S
C155        C580   1.491   1_556  S
C156        C160   1.554       .  S
C156        C158   1.552   1_554  S
C156        H162   1.108       .  S
C157        H163   1.085       .  S
C157        C158   1.383       .  D
C158        C570   1.502       .  S
C159        H164   1.089       .  S
C159        C160   1.348   1_556  D
C160        C550   1.481       .  S
O165       Cu173   2.063   1_565  S
O165        C175   1.284       .  A
O166       Cu173   2.064   1_556  S
O166        C176   1.284       .  A
O167       Cu173   2.038       .  S
O167        C177   1.278       .  A
O168       Cu173   2.027   1_566  S
O168        C178   1.278       .  A
O169       Cu174   2.061   1_566  S
O169        C178   1.283       .  A
O170       Cu174   2.066       .  S
O170        C177   1.285       .  A
O171       Cu174   2.026   1_556  S
O171        C176   1.277       .  A
O172       Cu174   2.023   1_565  S
O172        C175   1.277       .  A
Cu173      Cu174   2.368       .  S
C175        C545   1.462       .  S
C176        C543   1.463       .  S
C177        C542   1.469       .  S
C178        C548   1.463       .  S
N179        C183   1.363       .  A
N179        C180   1.364       .  A
N179        C547   1.422       .  S
C180        C181   1.383       .  A
C180        C859   1.485       .  S
C181        C182   1.364       .  A
C181        H184   1.083       .  S
C182        C183   1.380       .  A
C182        H185   1.083       .  S
C183        C779   1.477       .  S
C186        C187   1.547   1_545  S
C186        C192   1.506       .  S
C186        C190   1.546       .  S
C186        C532   1.517       .  S
C187        H194   1.085       .  S
C187        C188   1.382       .  D
C188        C189   1.549   1_565  S
C188        C512   1.498       .  S
C189        C193   1.549       .  S
C189        C191   1.541       .  S
C189        H195   1.106       .  S
C190        H196   1.085       .  S
C190        C191   1.372       .  D
C191        C502   1.497       .  S
C192        H197   1.090       .  S
C192        C193   1.341       .  D
C193        C522   1.475       .  S
N198        C202   1.364       .  A
N198        C199   1.365       .  A
N198        C546   1.422       .  S
C199        C200   1.381       .  A
C199        C849   1.479       .  S
C200        C201   1.363       .  A
C200        H203   1.083       .  S
C201        C202   1.382       .  A
C201        H204   1.083       .  S
C202        C515   1.480       .  S
N205        C209   1.360       .  A
N205        C206   1.362       .  A
N205        C544   1.423       .  S
C206        C207   1.384       .  A
C206        C769   1.475       .  S
C207        C208   1.365       .  A
C207        H210   1.083       .  S
C208        C209   1.382       .  A
C208        H211   1.083       .  S
C209        C560   1.477       .  S
O212       Cu220   2.026       .  S
O212        C222   1.277       .  A
O213       Cu220   2.027       .  S
O213        C223   1.277   1_655  A
O214       Cu220   2.057       .  S
O214        C224   1.283       .  A
O215       Cu220   2.063       .  S
O215        C225   1.283   1_655  A
O216       Cu221   2.031       .  S
O216        C225   1.278       .  A
O217       Cu221   2.030       .  S
O217        C224   1.277   1_455  A
O218       Cu221   2.069       .  S
O218        C223   1.285       .  A
O219       Cu221   2.066       .  S
O219        C222   1.284   1_455  A
Cu220      Cu221   2.368   1_655  S
C222        C493   1.465       .  S
C223        C499   1.465       .  S
C224        C497   1.462       .  S
C225        C495   1.466       .  S
N226        C230   1.364       .  A
N226        C227   1.360       .  A
N226        C498   1.421       .  S
C227        C228   1.380       .  A
C227        C839   1.474       .  S
C228        C229   1.364       .  A
C228        H231   1.083       .  S
C229        C230   1.385       .  A
C229        H232   1.082       .  S
C230        C719   1.486       .  S
O233       Cu241   2.094       .  S
O233        C243   1.289   1_565  A
O234       Cu241   2.088       .  S
O234        C244   1.288   1_565  A
O235       Cu241   2.021       .  S
O235        C245   1.275   1_565  A
O236       Cu241   2.037       .  S
O236        C246   1.277   1_565  A
O237       Cu242   2.093       .  S
O237        C246   1.289       .  A
O238       Cu242   2.087       .  S
O238        C245   1.288       .  A
O239       Cu242   2.015       .  S
O239        C244   1.274       .  A
O240       Cu242   2.021       .  S
O240        C243   1.275       .  A
Cu241      Cu242   2.364   1_565  S
C243        C486   1.475       .  S
C244        C490   1.469       .  S
C245        C491   1.471   1_545  S
C246        C487   1.480       .  S
N247        C251   1.357       .  A
N247        C248   1.359       .  A
N247        C489   1.427       .  S
C248        C249   1.382       .  A
C248        C799   1.469       .  S
C249        C250   1.361       .  A
C249        H252   1.083       .  S
C250        C251   1.383       .  A
C250        H253   1.083       .  S
C251        C759   1.471       .  S
C254        C255   1.548       .  S
C254        C260   1.507   1_545  S
C254        C258   1.547       .  S
C254        C449   1.518       .  S
C255        H262   1.085       .  S
C255        C256   1.380   1_545  D
C256        C257   1.544       .  S
C256        C466   1.494       .  S
C257        C261   1.546       .  S
C257        C259   1.535   1_565  S
C257        H263   1.108       .  S
C258        H264   1.085       .  S
C258        C259   1.377       .  D
C259        C476   1.492       .  S
C260        H265   1.090       .  S
C260        C261   1.339       .  D
C261        C459   1.471       .  S
O266       Cu274   2.011   1_445  S
O266        C276   1.273       .  A
O267       Cu274   1.993       .  S
O267        C277   1.271       .  A
O268       Cu274   2.104   1_455  S
O268        C278   1.291       .  A
O269       Cu274   2.098   1_545  S
O269        C279   1.290       .  A
O270       Cu275   2.007   1_645  S
O270        C279   1.273       .  A
O271       Cu275   2.021       .  S
O271        C278   1.274       .  A
O272       Cu275   2.093   1_655  S
O272        C277   1.289       .  A
O273       Cu275   2.098   1_545  S
O273        C276   1.290       .  A
Cu274      Cu275   2.364   1_655  S
C276        C437   1.473       .  S
C277        C443   1.463       .  S
C278        C440   1.479       .  S
C279        C442   1.470       .  S
N280        C284   1.363       .  A
N280        C281   1.361       .  A
N280        C444   1.424       .  S
C281        C282   1.380       .  A
C281        C739   1.471       .  S
C282        C283   1.359       .  A
C282        H285   1.083       .  S
C283        C284   1.383       .  A
C283        H286   1.082       .  S
C284        C699   1.481       .  S
C287        C288   1.553       .  S
C287        C293   1.515       .  S
C287        C291   1.548       .  S
C287        C411   1.526       .  S
C288        H295   1.085       .  S
C288        C289   1.383       .  D
C289        C290   1.543   1_655  S
C289        C421   1.503       .  S
C290        C294   1.541       .  S
C290        C292   1.538       .  S
C290        H296   1.109       .  S
C291        H297   1.084       .  S
C291        C292   1.373   1_655  D
C292        C428   1.484       .  S
C293        H298   1.090       .  S
C293        C294   1.340   1_655  D
C294        C398   1.471       .  S
N299        C303   1.368       .  A
N299        C300   1.363       .  A
N299        C441   1.427       .  S
C300        C301   1.382       .  A
C300        C729   1.480       .  S
C301        C302   1.361       .  A
C301        H304   1.083       .  S
C302        C303   1.383       .  A
C302        H305   1.083       .  S
C303        C408   1.486       .  S
N306        C310   1.370       .  A
N306        C307   1.368       .  A
N306        C439   1.434       .  S
C307        C308   1.381       .  A
C307        C456   1.476       .  S
C308        C309   1.354       .  A
C308        H311   1.082       .  S
C309        C310   1.382       .  A
C309        H312   1.083       .  S
C310        C689   1.478       .  S
N313        C317   1.367       .  A
N313        C314   1.363       .  A
N313        C492   1.428       .  S
C314        C315   1.384       .  A
C314        C469   1.485       .  S
C315        C316   1.363       .  A
C315        H318   1.082       .  S
C316        C317   1.383       .  A
C316        H319   1.082       .  S
C317        C789   1.489       .  S
N320        C324   1.369       .  A
N320        C321   1.369       .  A
N320        C500   1.424       .  S
C321        C322   1.382       .  A
C321        C829   1.485       .  S
C322        C323   1.362       .  A
C322        H325   1.083       .  S
C323        C324   1.381       .  A
C323        H326   1.083   1_455  S
C324        C418   1.485   1_455  S
N327        C331   1.366       .  A
N327        C328   1.366       .  A
N327        C438   1.431       .  S
C328        C329   1.382       .  A
C328        C446   1.481       .  S
C329        C330   1.361       .  A
C329        H332   1.082       .  S
C330        C331   1.384       .  A
C330        H333   1.082       .  S
C331        C401   1.485       .  S
N334        C338   1.372       .  A
N334        C335   1.365       .  A
N334        C488   1.434       .  S
C335        C336   1.375       .  A
C335        C535   1.462       .  S
C336        C337   1.354       .  A
C336        H339   1.083       .  S
C337        C338   1.385       .  A
C337        H340   1.083       .  S
C338        C749   1.481       .  S
N341        C345   1.363       .  A
N341        C342   1.362       .  A
N341        C494   1.424       .  S
C342        C343   1.385       .  A
C342        C706   1.484       .  S
C343        C344   1.363       .  A
C343        H346   1.082       .  S
C344        C345   1.382       .  A
C344        H347   1.083       .  S
C345        C631   1.481       .  S
N348        C352   1.366       .  A
N348        C349   1.366       .  A
N348        C596   1.424       .  S
C349        C350   1.382       .  A
C349        C909   1.479       .  S
C350        C351   1.363       .  A
C350        H353   1.083       .  S
C351        C352   1.380       .  A
C351        H354   1.083       .  S
C352        C573   1.479       .  S
N355        C359   1.369       .  A
N355        C356   1.364       .  A
N355        C541   1.426       .  S
C356        C357   1.379       .  A
C356        C505   1.482       .  S
C357        C358   1.363       .  A
C357        H360   1.083       .  S
C358        C359   1.387       .  A
C358        H361   1.081       .  S
C359        C553   1.497       .  S
N362        C366   1.370       .  A
N362        C363   1.367       .  A
N362        C592   1.427       .  S
C363        C364   1.381       .  A
C363        C669   1.484       .  S
C364        C365   1.362       .  A
C364        H367   1.083       .  S
C365        C366   1.382       .  A
C365        H368   1.082       .  S
C366        C869   1.487       .  S
N369        C373   1.367       .  A
N369        C370   1.367       .  A
N369        C638   1.427       .  S
C370        C371   1.380       .  A
C370        C601   1.479       .  S
C371        C372   1.359       .  A
C371        H374   1.083       .  S
C372        C373   1.382       .  A
C372        H375   1.082       .  S
C373        C649   1.485       .  S
N376        C380   1.364       .  A
N376        C377   1.361       .  A
N376        C496   1.425       .  S
C377        C378   1.384       .  A
C377        C431   1.484       .  S
C378        C379   1.366       .  A
C378        H381   1.082       .  S
C379        C380   1.382       .  A
C379        H382   1.082       .  S
C380        C621   1.484       .  S
N383        C387   1.372       .  A
N383        C384   1.365       .  A
N383        C485   1.431       .  S
C384        C385   1.377       .  A
C384        C479   1.470       .  S
C385        C386   1.356       .  A
C385        H388   1.083       .  S
C386        C387   1.385       .  A
C386        H389   1.082       .  S
C387        C525   1.486       .  S
N390        C394   1.363       .  A
N390        C391   1.364       .  A
N390        C590   1.421       .  S
C391        C392   1.383       .  A
C391        C583   1.483       .  S
C392        C393   1.365       .  A
C392        H395   1.082       .  S
C393        C394   1.380       .  A
C393        H396   1.082       .  S
C394        C679   1.479       .  S
C397        C398   1.398       .  A
C397        C402   1.396       .  A
C397        H403   1.084       .  S
C398        C399   1.407       .  A
C399        C400   1.401       .  A
C399        H404   1.083       .  S
C400        C401   1.403       .  A
C400        H405   1.083       .  S
C401        C402   1.411       .  A
C402        H406   1.083       .  S
C407        C408   1.406       .  A
C407        C412   1.395       .  A
C407        H413   1.083       .  S
C408        C409   1.402       .  A
C409        C410   1.405       .  A
C409        H414   1.084       .  S
C410        C411   1.416       .  A
C410        H415   1.083       .  S
C411        C412   1.408       .  A
C412        H416   1.080       .  S
C417        C418   1.398   1_455  A
C417        C422   1.403       .  A
C417        H423   1.083       .  S
C418        C419   1.411       .  A
C419        C420   1.402       .  A
C419        H424   1.083       .  S
C420        C421   1.402       .  A
C420        H425   1.082       .  S
C421        C422   1.416   1_655  A
C422        H426   1.080       .  S
C427        C428   1.401       .  A
C427        C432   1.397       .  A
C427        H433   1.083       .  S
C428        C429   1.407   1_455  A
C429        C430   1.400   1_655  A
C429        H434   1.083       .  S
C430        C431   1.404       .  A
C430        H435   1.083   1_455  S
C431        C432   1.408       .  A
C432        H436   1.083       .  S
C437        C438   1.229       .  T
C439        C440   1.232       .  T
C441        C442   1.227       .  T
C443        C444   1.224       .  T
C445        C446   1.406       .  A
C445        C450   1.395       .  A
C445        H451   1.083       .  S
C446        C447   1.400       .  A
C447        C448   1.401       .  A
C447        H452   1.083       .  S
C448        C449   1.415       .  A
C448        H453   1.082       .  S
C449        C450   1.408       .  A
C450        H454   1.082       .  S
C455        C456   1.411       .  A
C455        C460   1.395       .  A
C455        H461   1.084       .  S
C456        C457   1.399       .  A
C457        C458   1.398       .  A
C457        H462   1.082       .  S
C458        C459   1.410       .  A
C458        H463   1.084       .  S
C459        C460   1.396       .  A
C460        H464   1.083       .  S
C465        C466   1.404       .  A
C465        C470   1.398       .  A
C465        H471   1.082       .  S
C466        C467   1.410       .  A
C467        C468   1.402       .  A
C467        H472   1.082   1_565  S
C468        C469   1.403       .  A
C468        H473   1.083   1_565  S
C469        C470   1.407       .  A
C470        H474   1.083       .  S
C475        C476   1.405   1_565  A
C475        C480   1.401       .  A
C475        H481   1.083       .  S
C476        C477   1.407       .  A
C477        C478   1.400       .  A
C477        H482   1.082       .  S
C478        C479   1.403       .  A
C478        H483   1.083       .  S
C479        C480   1.406   1_545  A
C480        H484   1.084       .  S
C485        C486   1.230       .  T
C487        C488   1.233       .  T
C489        C490   1.226       .  T
C491        C492   1.227       .  T
C493        C494   1.224       .  T
C495        C496   1.224       .  T
C497        C498   1.221       .  T
C499        C500   1.224       .  T
C501        C502   1.411       .  A
C501        C506   1.403       .  A
C501        H507   1.082       .  S
C502        C503   1.404       .  A
C503        C504   1.400       .  A
C503        H508   1.082       .  S
C504        C505   1.406       .  A
C504        H509   1.083       .  S
C505        C506   1.403       .  A
C506        H510   1.083       .  S
C511        C512   1.405       .  A
C511        C516   1.396       .  A
C511        H517   1.081       .  S
C512        C513   1.412       .  A
C513        C514   1.406       .  A
C513        H518   1.081       .  S
C514        C515   1.402       .  A
C514        H519   1.083       .  S
C515        C516   1.404       .  A
C516        H520   1.084       .  S
C521        C522   1.394       .  A
C521        C526   1.395       .  A
C521        H527   1.083       .  S
C522        C523   1.413   1_545  A
C523        C524   1.401       .  A
C523        H528   1.083       .  S
C524        C525   1.400   1_565  A
C524        H529   1.082       .  S
C525        C526   1.414       .  A
C526        H530   1.083       .  S
C531        C532   1.410   1_565  A
C531        C536   1.400       .  A
C531        H537   1.082       .  S
C532        C533   1.412       .  A
C533        C534   1.394       .  A
C533        H538   1.082       .  S
C534        C535   1.397       .  A
C534        H539   1.083       .  S
C535        C536   1.403   1_545  A
C536        H540   1.084       .  S
C541        C542   1.225       .  T
C543        C544   1.222       .  T
C545        C546   1.222       .  T
C547        C548   1.222       .  T
C549        C550   1.411       .  A
C549        C554   1.405       .  A
C549        H555   1.083       .  S
C550        C551   1.396       .  A
C551        C552   1.395       .  A
C551        H556   1.082       .  S
C552        C553   1.413       .  A
C552        H557   1.081       .  S
C553        C554   1.405       .  A
C554        H558   1.082       .  S
C559        C560   1.399       .  A
C559        C564   1.390       .  A
C559        H565   1.084       .  S
C560        C561   1.403       .  A
C561        C562   1.406       .  A
C561        H566   1.083       .  S
C562        C563   1.414       .  A
C562        H567   1.083       .  S
C563        C564   1.411       .  A
C564        H568   1.077       .  S
C569        C570   1.408       .  A
C569        C574   1.398       .  A
C569        H575   1.082       .  S
C570        C571   1.410       .  A
C571        C572   1.408       .  A
C571        H576   1.082   1_556  S
C572        C573   1.404       .  A
C572        H577   1.083   1_556  S
C573        C574   1.403       .  A
C574        H578   1.083       .  S
C579        C580   1.403       .  A
C579        C584   1.397       .  A
C579        H585   1.082       .  S
C580        C581   1.410   1_554  A
C581        C582   1.403       .  A
C581        H586   1.082       .  S
C582        C583   1.402   1_556  A
C582        H587   1.083       .  S
C583        C584   1.407       .  A
C584        H588   1.083       .  S
C589        C590   1.221   1_556  T
C591        C592   1.226       .  T
C593        C594   1.223       .  T
C595        C596   1.224       .  T
C597        C598   1.408       .  A
C597        C602   1.399       .  A
C597        H603   1.081       .  S
C598        C599   1.408       .  A
C599        C600   1.406       .  A
C599        H604   1.083       .  S
C600        C601   1.405       .  A
C600        H605   1.082       .  S
C601        C602   1.404       .  A
C602        H606   1.084       .  S
C607        C608   1.412       .  A
C607        C612   1.405       .  A
C607        H613   1.081       .  S
C608        C609   1.404       .  A
C609        C610   1.395       .  A
C609        H614   1.082       .  S
C610        C611   1.405       .  A
C610        H615   1.083       .  S
C611        C612   1.404       .  A
C612        H616   1.084       .  S
C617        C618   1.399       .  A
C617        C622   1.400       .  A
C617        H623   1.084       .  S
C618        C619   1.409   1_455  A
C619        C620   1.399   1_655  A
C619        H624   1.084       .  S
C620        C621   1.402       .  A
C620        H625   1.083   1_455  S
C621        C622   1.410       .  A
C622        H626   1.083       .  S
C627        C628   1.408       .  A
C627        C632   1.397       .  A
C627        H633   1.081       .  S
C628        C629   1.414       .  A
C629        C630   1.401       .  A
C629        H634   1.083   1_655  S
C630        C631   1.400       .  A
C630        H635   1.083       .  S
C631        C632   1.405       .  A
C632        H636   1.083       .  S
C637        C638   1.227       .  T
C639        C640   1.233       .  T
C641        C642   1.226       .  T
C643        C644   1.230       .  T
C645        C646   1.415       .  A
C645        C650   1.408       .  A
C645        H651   1.083       .  S
C646        C647   1.409       .  A
C647        C648   1.392       .  A
C647        H652   1.078       .  S
C648        C649   1.403       .  A
C648        H653   1.083       .  S
C649        C650   1.403       .  A
C650        H654   1.083       .  S
C655        C656   1.413       .  A
C655        C660   1.395       .  A
C655        H661   1.082       .  S
C656        C657   1.403       .  A
C657        C658   1.405       .  A
C657        H662   1.083       .  S
C658        C659   1.412       .  A
C658        H663   1.083       .  S
C659        C660   1.396       .  A
C660        H664   1.084       .  S
C665        C666   1.403       .  A
C665        C670   1.400       .  A
C665        H671   1.082       .  S
C666        C667   1.411   1_556  A
C667        C668   1.406       .  A
C667        H672   1.083       .  S
C668        C669   1.403   1_554  A
C668        H673   1.083       .  S
C669        C670   1.408       .  A
C670        H674   1.084       .  S
C675        C676   1.407       .  A
C675        C680   1.398       .  A
C675        H681   1.083       .  S
C676        C677   1.407   1_554  A
C677        C678   1.407       .  A
C677        H682   1.083       .  S
C678        C679   1.406   1_556  A
C678        H683   1.083       .  S
C679        C680   1.403       .  A
C680        H684   1.083       .  S
C685        C686   1.417       .  A
C685        C690   1.404       .  A
C685        H691   1.083       .  S
C686        C687   1.405       .  A
C687        C688   1.393       .  A
C687        H692   1.080       .  S
C688        C689   1.406       .  A
C688        H693   1.084       .  S
C689        C690   1.400       .  A
C690        H694   1.082       .  S
C695        C696   1.407       .  A
C695        C700   1.401       .  A
C695        H701   1.083       .  S
C696        C697   1.397       .  A
C697        C698   1.391       .  A
C697        H702   1.084       .  S
C698        C699   1.408       .  A
C698        H703   1.082       .  S
C699        C700   1.404       .  A
C700        H704   1.083       .  S
C705        C706   1.404       .  A
C705        C710   1.391       .  A
C705        H711   1.083       .  S
C706        C707   1.405       .  A
C707        C708   1.406       .  A
C707        H712   1.083       .  S
C708        C709   1.411       .  A
C708        H713   1.082   1_655  S
C709        C710   1.405       .  A
C710        H714   1.080       .  S
C715        C716   1.411       .  A
C715        C720   1.410       .  A
C715        H721   1.083   1_655  S
C716        C717   1.404       .  A
C717        C718   1.392       .  A
C717        H722   1.082       .  S
C718        C719   1.404       .  A
C718        H723   1.084       .  S
C719        C720   1.406       .  A
C720        H724   1.083   1_655  S
C725        C726   1.413       .  A
C725        C730   1.400       .  A
C725        H731   1.081       .  S
C726        C727   1.404       .  A
C727        C728   1.398       .  A
C727        H732   1.082       .  S
C728        C729   1.406       .  A
C728        H733   1.083       .  S
C729        C730   1.401       .  A
C730        H734   1.083       .  S
C735        C736   1.406       .  A
C735        C740   1.396       .  A
C735        H741   1.083       .  S
C736        C737   1.405       .  A
C737        C738   1.399       .  A
C737        H742   1.083       .  S
C738        C739   1.403       .  A
C738        H743   1.083       .  S
C739        C740   1.403       .  A
C740        H744   1.083       .  S
C745        C746   1.396   1_545  A
C745        C750   1.391       .  A
C745        H751   1.084       .  S
C746        C747   1.412       .  A
C747        C748   1.404       .  A
C747        H752   1.084       .  S
C748        C749   1.402   1_565  A
C748        H753   1.083       .  S
C749        C750   1.410       .  A
C750        H754   1.084       .  S
C755        C756   1.412       .  A
C755        C760   1.385       .  A
C755        H761   1.081       .  S
C756        C757   1.411       .  A
C757        C758   1.403       .  A
C757        H762   1.082   1_545  S
C758        C759   1.404       .  A
C758        H763   1.084       .  S
C759        C760   1.396       .  A
C760        H764   1.083       .  S
C765        C766   1.407       .  A
C765        C770   1.396       .  A
C765        H771   1.083       .  S
C766        C767   1.400       .  A
C767        C768   1.399       .  A
C767        H772   1.083       .  S
C768        C769   1.409       .  A
C768        H773   1.083       .  S
C769        C770   1.401       .  A
C770        H774   1.083       .  S
C775        C776   1.409       .  A
C775        C780   1.397       .  A
C775        H781   1.082   1_565  S
C776        C777   1.406       .  A
C777        C778   1.404       .  A
C777        H782   1.083       .  S
C778        C779   1.404       .  A
C778        H783   1.083       .  S
C779        C780   1.402       .  A
C780        H784   1.084       .  S
C785        C786   1.398       .  A
C785        C790   1.400       .  A
C785        H791   1.084       .  S
C786        C787   1.411   1_565  A
C787        C788   1.401   1_545  A
C787        H792   1.084       .  S
C788        C789   1.402       .  A
C788        H793   1.083   1_565  S
C789        C790   1.412       .  A
C790        H794   1.082       .  S
C795        C796   1.410       .  A
C795        C800   1.396       .  A
C795        H801   1.082   1_545  S
C796        C797   1.410       .  A
C797        C798   1.391       .  A
C797        H802   1.081       .  S
C798        C799   1.400       .  A
C798        H803   1.084       .  S
C799        C800   1.401       .  A
C800        H804   1.083       .  S
C805        C806   1.404       .  A
C805        C810   1.405       .  A
C805        H811   1.083       .  S
C806        C807   1.397       .  A
C807        C808   1.393       .  A
C807        H812   1.083       .  S
C808        C809   1.414       .  A
C808        H813   1.080       .  S
C809        C810   1.411       .  A
C810        H814   1.082       .  S
C815        C816   1.398       .  A
C815        C820   1.390       .  A
C815        H821   1.080       .  S
C816        C817   1.410       .  A
C817        C818   1.404       .  A
C817        H822   1.083       .  S
C818        C819   1.405       .  A
C818        H823   1.082       .  S
C819        C820   1.410       .  A
C820        H824   1.082       .  S
C825        C826   1.415       .  A
C825        C830   1.403       .  A
C825        H831   1.080   1_455  S
C826        C827   1.404       .  A
C827        C828   1.401       .  A
C827        H832   1.082       .  S
C828        C829   1.410       .  A
C828        H833   1.083       .  S
C829        C830   1.399       .  A
C830        H834   1.083   1_455  S
C835        C836   1.405       .  A
C835        C840   1.396       .  A
C835        H841   1.082       .  S
C836        C837   1.408   1_655  A
C837        C838   1.400   1_455  A
C837        H842   1.082       .  S
C838        C839   1.402       .  A
C838        H843   1.084   1_655  S
C839        C840   1.403       .  A
C840        H844   1.083       .  S
C845        C846   1.411       .  A
C845        C850   1.404       .  A
C845        H851   1.083       .  S
C846        C847   1.403       .  A
C847        C848   1.400       .  A
C847        H852   1.082       .  S
C848        C849   1.406       .  A
C848        H853   1.084       .  S
C849        C850   1.403       .  A
C850        H854   1.083       .  S
C855        C856   1.410       .  A
C855        C860   1.410       .  A
C855        H861   1.083       .  S
C856        C857   1.409       .  A
C857        C858   1.395       .  A
C857        H862   1.082       .  S
C858        C859   1.403       .  A
C858        H863   1.084       .  S
C859        C860   1.406       .  A
C860        H864   1.083       .  S
C865        C866   1.398       .  A
C865        C870   1.401       .  A
C865        H871   1.083       .  S
C866        C867   1.412   1_556  A
C867        C868   1.402       .  A
C867        H872   1.084       .  S
C868        C869   1.400   1_554  A
C868        H873   1.082       .  S
C869        C870   1.412       .  A
C870        H874   1.084       .  S
C875        C876   1.408       .  A
C875        C880   1.394       .  A
C875        H881   1.081       .  S
C876        C877   1.414   1_554  A
C877        C878   1.402   1_556  A
C877        H882   1.082       .  S
C878        C879   1.400       .  A
C878        H883   1.083   1_554  S
C879        C880   1.403       .  A
C880        H884   1.084       .  S
C885        C886   1.414       .  A
C885        C890   1.402       .  A
C885        H891   1.083       .  S
C886        C887   1.406       .  A
C887        C888   1.394       .  A
C887        H892   1.080       .  S
C888        C889   1.407       .  A
C888        H893   1.083       .  S
C889        C890   1.401       .  A
C890        H894   1.082       .  S
C895        C896   1.400       .  A
C895        C900   1.400       .  A
C895        H901   1.083       .  S
C896        C897   1.407       .  A
C897        C898   1.396       .  A
C897        H902   1.084       .  S
C898        C899   1.400       .  A
C898        H903   1.083       .  S
C899        C900   1.409       .  A
C900        H904   1.083       .  S
C905        C906   1.402       .  A
C905        C910   1.399       .  A
C905        H911   1.083       .  S
C906        C907   1.409   1_556  A
C907        C908   1.402   1_554  A
C907        H912   1.083       .  S
C908        C909   1.401       .  A
C908        H913   1.083   1_556  S
C909        C910   1.408       .  A
C910        H914   1.083       .  S
C915        C916   1.407       .  A
C915        C920   1.395       .  A
C915        H921   1.083       .  S
C916        C917   1.405   1_554  A
C917        C918   1.405       .  A
C917        H922   1.083       .  S
C918        C919   1.405   1_556  A
C918        H923   1.083       .  S
C919        C920   1.402       .  A
C920        H924   1.084       .  S
