geometry optimzed in LAMMPS
_audit_creation_date              2020-11-30 
_audit_creation_method            'lammps2cif' 
_symmetry_space_group_name_H-M    'P1' 
_symmetry_Int_Tables_number       1 
_symmetry_cell_setting            triclinic 
loop_ 
_symmetry_equiv_pos_as_xyz 
  x,y,z 
_cell_length_a                    26.208455486537332 
_cell_length_b                    26.17130159251882 
_cell_length_c                    32.14138993383535 
_cell_angle_alpha                 90.2481463698194 
_cell_angle_beta                  90.12396674489689 
_cell_angle_gamma                 89.39871374577136 
loop_ 
_atom_site_label 
_atom_site_type_symbol 
_atom_site_fract_x 
_atom_site_fract_y 
_atom_site_fract_z 
_atom_site_charge 
C1          C  0.49862705  0.25025292  0.52062113     0.00600
C2          C  0.99531131  0.24829748  0.47895221     0.00600
C3          C  0.25375985  0.49119553  0.52003756     0.00600
C4          C  0.25801229  0.99205444  0.47840832     0.00600
C5          C  0.13305502  0.31549399  0.64260523     0.42490
N6          N  0.15297141  0.28454728  0.70174014     0.01380
C7          C  0.35620334  0.33688097  0.83174352    -0.06500
H8          H  0.39098440  0.31797211  0.66227877     0.06870
C9          C  0.34195207  0.14910800  0.67362357    -0.06850
Co10       Co  0.23113124  0.34260302  0.75069652     0.74180
N11         N  0.33037205  0.32428278  0.70816795    -0.26020
Co12       Co  0.34260553  0.26973512  0.75596798     0.74070
C13         C  0.38067295  0.18225628  0.65465968     0.42590
N14         N  0.21968563  0.14683018  0.70863129     0.01000
N15         N  0.35619154  0.21430507  0.71269082     0.01100
N16         N  0.28433969  0.38600769  0.83117721    -0.46870
H17         H  0.18582369  0.38476275  0.65243035     0.06860
N18         N  0.28836911  0.35246248  0.70865571     0.01390
N19         N  0.35195940  0.21442904  0.80303420     0.01130
C20         C  0.37696646  0.16908743  0.85467876     0.42730
N21         N  0.17803949  0.17467444  0.70328888    -0.25480
C22         C  0.15805470  0.36096581  0.82408785    -0.06400
N23         N  0.12534619  0.27648497  0.66829774    -0.46590
N24         N  0.38548343  0.21331515  0.83418177    -0.46810
C25         C  0.11665459  0.33339697  0.84302047     0.42510
N26         N  0.28503238  0.35322716  0.79936472     0.01380
N27         N  0.16907664  0.18016388  0.79400497    -0.25500
N28         N  0.17936399  0.32717648  0.70078380    -0.26000
N29         N  0.21140792  0.15362246  0.80051614     0.01010
H30         H  0.09996513  0.19251740  0.82869499     0.06900
H31         H  0.32047614  0.10535514  0.83973953     0.06940
N32         N  0.32686670  0.32461855  0.79952443    -0.26040
N33         N  0.32887077  0.17237254  0.70996585    -0.25660
N34         N  0.14506028  0.28940640  0.79177538     0.01380
C35         C  0.32405214  0.37433651  0.65185464     0.42780
C36         C  0.15701027  0.16094329  0.66646224    -0.06910
N37         N  0.32338634  0.17325921  0.80216523    -0.25660
H38         H  0.32488523  0.11513418  0.66075137     0.06920
N39         N  0.28326550  0.38219020  0.67602815    -0.46880
H40         H  0.12345986  0.17785127  0.65230976     0.06910
C41         C  0.16387888  0.14226669  0.85389891     0.42610
C42         C  0.16892401  0.35005252  0.66384758    -0.06410
Co43       Co  0.16007142  0.23181767  0.74747894     0.73820
N44         N  0.22899105  0.11517278  0.67756389    -0.46600
C45         C  0.32823535  0.37678858  0.85253732     0.42880
N46         N  0.11023075  0.28936835  0.82173932    -0.46590
Co47       Co  0.27107177  0.15980008  0.75571786     0.73890
C48         C  0.33639984  0.14250845  0.83353503    -0.06910
C49         C  0.35587538  0.33564404  0.67284998    -0.06480
N50         N  0.17333611  0.33081402  0.79279227    -0.26000
N51         N  0.38686692  0.22130789  0.68098892    -0.46770
H52         H  0.39280364  0.31985671  0.83936643     0.06880
C53         C  0.13669809  0.17389193  0.82518587    -0.06890
Cl54       Cl  0.25128050  0.25105922  0.75266742    -0.49890
C55         C  0.19145898  0.12137291  0.64968482     0.42640
H56         H  0.17422827  0.39742846  0.83252761     0.06850
N57         N  0.21032752  0.13028731  0.83735389    -0.46600
C58         C  0.12207095  0.18593472  0.34664002     0.42490
N59         N  0.14872268  0.21579175  0.28887207     0.01380
C60         C  0.36643110  0.15957127  0.17731438    -0.06500
H61         H  0.38667653  0.18385493  0.34912274     0.06870
C62         C  0.33433021  0.35431284  0.33157429    -0.06850
Co63       Co  0.23575228  0.15838596  0.25112617     0.74180
N64         N  0.32960369  0.17823188  0.30003408    -0.26020
Co65       Co  0.34523782  0.23130700  0.25143575     0.74070
C66         C  0.37295554  0.32241557  0.35269112     0.42590
N67         N  0.21416091  0.35391944  0.28846299     0.01000
N68         N  0.35305140  0.28787252  0.29467943     0.01100
N69         N  0.29569988  0.11047724  0.17767151    -0.46870
H70         H  0.18026263  0.11933037  0.34447997     0.06860
N71         N  0.28733794  0.15138829  0.29792531     0.01390
N72         N  0.35632324  0.28632862  0.20395265     0.01130
C73         C  0.38083683  0.33093674  0.15213697     0.42730
N74         N  0.17291023  0.32554190  0.29008800    -0.25480
C75         C  0.18046818  0.13517067  0.17172676    -0.06400
N76         N  0.11594166  0.22387294  0.31922909    -0.46590
N77         N  0.38978433  0.28656710  0.17282168    -0.46810
C78         C  0.14897651  0.16212277  0.14278418     0.42510
N79         N  0.29451438  0.14504490  0.20799959     0.01380
N80         N  0.17615351  0.32168836  0.19779356    -0.25500
N81         N  0.17725990  0.17461980  0.29425495    -0.26000
N82         N  0.21681831  0.35096355  0.19819873     0.01010
H83         H  0.10949222  0.31796909  0.15858442     0.06900
H84         H  0.32271081  0.39458095  0.16508361     0.06940
N85         N  0.33539099  0.17404317  0.20817528    -0.26040
N86         N  0.32427233  0.32951328  0.29540430    -0.25660
N87         N  0.15814463  0.20920900  0.19709590     0.01380
C88         C  0.31790094  0.13015900  0.35691957     0.42780
C89         C  0.14891668  0.33748064  0.32630962    -0.06910
N90         N  0.32726621  0.32787399  0.20389328    -0.25660
H91         H  0.31589129  0.38892995  0.34254200     0.06920
N92         N  0.27924091  0.12272928  0.33061653    -0.46880
H93         H  0.11525978  0.31937290  0.33842570     0.06910
C94         C  0.17252245  0.37574065  0.14581438     0.42610
C95         C  0.16300606  0.15274114  0.33041296    -0.06410
Co96       Co  0.16224767  0.26831247  0.24306941     0.73820
N97         N  0.21980264  0.38449345  0.32062751    -0.46600
C98         C  0.33995784  0.11786374  0.15738566     0.42880
N99         N  0.13551502  0.20808921  0.15983364    -0.46590
Co100      Co  0.27094664  0.34185479  0.24637824     0.73890
C101        C  0.34006902  0.35806673  0.17251869    -0.06910
C102        C  0.35222445  0.16699123  0.33695757    -0.06480
N103        N  0.18534218  0.16725726  0.20351499    -0.26000
N104        N  0.38201270  0.28236664  0.32780300    -0.46770
H105        H  0.40279573  0.17636433  0.16985499     0.06880
C106        C  0.14609871  0.33452242  0.16587926    -0.06890
Cl107      Cl  0.25354961  0.25002088  0.24787224    -0.49890
C108        C  0.18058114  0.37704591  0.34623669     0.42640
H109        H  0.19968471  0.09870034  0.16813837     0.06850
N110        N  0.21599773  0.38480008  0.16740363    -0.46600
O111        O  0.43281346  0.44849436  0.04549965    -0.80100
O112        O  0.12182528  0.05631465  0.01532936    -0.80130
O113        O  0.04573220  0.44106885  0.05674699    -0.80130
O114        O  0.46232623  0.06318991  0.06700388    -0.80080
O115        O  0.11279066  0.45199923  0.01596678    -0.80200
O116        O  0.40088843  0.04703941  0.02419724    -0.80120
O117        O  0.06217266  0.06288995  0.06223943    -0.80100
O118        O  0.47194630  0.37618119  0.02763189    -0.80140
C119        C  0.44186159  0.40007590  0.05138238     1.09590
C120        C  0.10614509  0.07273898  0.05055775     1.09470
C121        C  0.09363667  0.44019762  0.05092508     1.09610
C122        C  0.41552232  0.06061539  0.05966106     1.09490
O123        O  0.44315442  0.04210836  0.94365269    -0.80100
O124        O  0.06392666  0.45585460  0.93283862    -0.80180
O125        O  0.44853299  0.42909336  0.95682443    -0.80120
O126        O  0.06116273  0.11710239  0.98244168    -0.80100
O127        O  0.06601812  0.05610150  0.93610801    -0.80150
O128        O  0.37791165  0.47059611  0.97536170    -0.80110
O129        O  0.45697093  0.11014494  0.98331563    -0.80070
O130        O  0.04717473  0.39584518  0.97658259    -0.80140
Co131      Co  0.44173392  0.99571537  0.99233820     1.51530
Co132      Co  0.08698183  0.00485237  0.97567059     1.51690
Co133      Co  0.99785185  0.43884875  0.00883941     1.51570
Co134      Co  0.01037155  0.08419902  0.02320269     1.51470
O135        O  0.01552791  0.01210046  0.99974614    -1.42040
C136        C  0.44332190  0.09024507  0.94890216     1.09510
C137        C  0.06039830  0.40924845  0.94079468     1.09600
C138        C  0.40016820  0.43906891  0.95177620     1.09540
C139        C  0.07644894  0.10036826  0.94719678     1.09520
C140        C  0.15193399  0.40483882  0.11173723    -0.13240
C141        C  0.12692856  0.42297934  0.08375596    -0.14800
C142        C  0.13916330  0.14189737  0.10196159    -0.13240
C143        C  0.13150148  0.11143259  0.07433699    -0.14800
C144        C  0.37998003  0.07452779  0.09150018    -0.13240
C145        C  0.35710795  0.09116848  0.12105075    -0.14800
C146        C  0.42177379  0.37330492  0.08646572    -0.13240
C147        C  0.40619099  0.34994032  0.11599847    -0.14800
C148        C  0.08958087  0.34953944  0.87952496    -0.13240
C149        C  0.07323000  0.37257693  0.90921520    -0.14800
C150        C  0.14420147  0.13261348  0.89472931    -0.13240
C151        C  0.11440016  0.12511873  0.92261072    -0.14800
C152        C  0.40628980  0.14804015  0.88848525    -0.13240
C153        C  0.42509663  0.12306382  0.91617086    -0.14800
C154        C  0.37163948  0.41845022  0.91766536    -0.13240
C155        C  0.34727971  0.40259937  0.88861189    -0.14800
C156        C  0.18324912  0.46838414  0.43435158    -0.13310
C157        C  0.22987312  0.45411120  0.45293554     0.08840
C158        C  0.25186187  0.40670622  0.44272959    -0.13310
C159        C  0.22983253  0.37621571  0.41169343    -0.13310
C160        C  0.18593805  0.39298272  0.39003076     0.08840
C161        C  0.16151523  0.43811664  0.40304922    -0.13310
H162        H  0.16562296  0.50485327  0.44191026     0.12820
H163        H  0.28792662  0.89511723  0.45645775     0.12820
H164        H  0.25026916  0.34227344  0.40135878     0.12820
H165        H  0.12876294  0.45270440  0.38607053     0.12820
C166        C  0.32823907  0.03034284  0.43754165    -0.13310
C167        C  0.28025599  0.03630417  0.45650314     0.08840
C168        C  0.25190335  0.08110019  0.44951306    -0.13310
C169        C  0.26944294  0.11730244  0.42119854    -0.13310
C170        C  0.31516008  0.10896922  0.39908039     0.08840
C171        C  0.34568563  0.06651892  0.40902567    -0.13310
H172        H  0.35043662  0.99573111  0.44245822     0.12820
H173        H  0.21464837  0.08626241  0.46351223     0.12820
H174        H  0.24452515  0.14906503  0.41310248     0.12820
H175        H  0.38004660  0.05836638  0.39143510     0.12820
C176        C  0.25999138  0.40461060  0.55258933    -0.13310
C177        C  0.28193985  0.45197847  0.54423256     0.08840
C178        C  0.32710280  0.46571763  0.56498191    -0.13310
C179        C  0.34688399  0.43513977  0.59688748    -0.13310
C180        C  0.32190807  0.39031991  0.60819478     0.08840
C181        C  0.28011699  0.37378623  0.58422627    -0.13310
H182        H  0.22491914  0.39359787  0.53725659     0.12820
H183        H  0.34461089  0.50221266  0.55889032     0.12820
H184        H  0.37807812  0.44937847  0.61566047     0.12820
H185        H  0.25939903  0.33998458  0.59325577     0.12820
C186        C  0.24264086  0.11058534  0.58580280    -0.13310
C187        C  0.19703891  0.10088364  0.60728861     0.08840
C188        C  0.16635861  0.06035184  0.59434140    -0.13310
C189        C  0.18337665  0.02717194  0.56289653    -0.13310
C190        C  0.23104456  0.03430534  0.54395773     0.08840
C191        C  0.25962574  0.07748628  0.55435710    -0.13310
H192        H  0.26735838  0.14116723  0.59594362     0.12820
H193        H  0.13190416  0.05137270  0.61123942     0.12820
H194        H  0.16118943  0.49359722  0.55558136     0.12820
H195        H  0.29671676  0.08338317  0.54050779     0.12820
C196        C  0.40682538  0.25626187  0.44970272    -0.13310
C197        C  0.45484558  0.27750077  0.45693634     0.08840
C198        C  0.46771439  0.32327366  0.43697627    -0.13310
C199        C  0.43543254  0.34444942  0.40676230    -0.13310
C200        C  0.38986665  0.32013185  0.39619685     0.08840
C201        C  0.37435322  0.27772825  0.41969415    -0.13310
H202        H  0.39643455  0.22073267  0.46445244     0.12840
H203        H  0.50474924  0.34016136  0.44217686     0.12820
H204        H  0.44894334  0.37605089  0.38827814     0.12820
H205        H  0.34003286  0.25741460  0.41116004     0.12820
C206        C  0.08089791  0.25260166  0.44375916    -0.13310
C207        C  0.03652913  0.22555384  0.45309533     0.08840
C208        C  0.02691647  0.17932848  0.43223607    -0.13310
C209        C  0.05919181  0.16215281  0.40035740    -0.13310
C210        C  0.10141103  0.19114661  0.38890340     0.08840
C211        C  0.11315722  0.23540996  0.41188139    -0.13310
H212        H  0.08858108  0.28872642  0.45895478     0.12820
H213        H  0.99240473  0.15838374  0.43870049     0.12820
H214        H  0.04856228  0.12893646  0.38221223     0.12820
H215        H  0.14489029  0.25904598  0.40272713     0.12820
C216        C  0.46964837  0.17802708  0.56463127    -0.13310
C217        C  0.45924749  0.22605612  0.54686028     0.08840
C218        C  0.41523827  0.25296075  0.55890219    -0.13310
C219        C  0.38434520  0.23388642  0.59062573    -0.13310
C220        C  0.39734435  0.18803372  0.61116898     0.08840
C221        C  0.43892206  0.15912737  0.59662401    -0.13310
H222        H  0.50373245  0.15690164  0.55580818     0.12820
H223        H  0.40679879  0.29021424  0.54587625     0.12820
H224        H  0.35305020  0.25744788  0.60194702     0.12820
H225        H  0.45062201  0.12463283  0.61268555     0.12820
C226        C  0.07057243  0.34185263  0.58911824    -0.13310
C227        C  0.11352539  0.31244774  0.59979698     0.08840
C228        C  0.12332288  0.26666825  0.57781190    -0.13310
C229        C  0.08774371  0.24760997  0.54934546    -0.13310
C230        C  0.04232926  0.27466124  0.54189103     0.08840
C231        C  0.03513809  0.32299235  0.56034295    -0.13310
H232        H  0.06132041  0.37624979  0.60650946     0.12820
H233        H  0.15554368  0.24261524  0.58640150     0.12820
H234        H  0.09376440  0.21009824  0.53574193     0.12820
H235        H  0.00002953  0.34421011  0.55502943     0.12820
C236        C  0.49862709  0.75025291  0.52062112     0.00600
C237        C  0.99531134  0.74829747  0.47895220     0.00600
C238        C  0.25375986  0.99119553  0.52003758     0.00600
C239        C  0.25801228  0.49205446  0.47840830     0.00600
C240        C  0.13305503  0.81549399  0.64260523     0.42490
N241        N  0.15297140  0.78454729  0.70174015     0.01380
C242        C  0.35620329  0.83688098  0.83174357    -0.06500
H243        H  0.39098442  0.81797219  0.66227884     0.06870
C244        C  0.34195208  0.64910806  0.67362358    -0.06850
Co245      Co  0.23113121  0.84260303  0.75069655     0.74180
N246        N  0.33037204  0.82428282  0.70816800    -0.26020
Co247      Co  0.34260551  0.76973516  0.75596801     0.74070
C248        C  0.38067295  0.68225637  0.65465969     0.42590
N249        N  0.21968564  0.64683020  0.70863129     0.01000
N250        N  0.35619154  0.71430512  0.71269084     0.01100
N251        N  0.28433963  0.88600770  0.83117725    -0.46870
H252        H  0.18582370  0.88476275  0.65243036     0.06860
N253        N  0.28836910  0.85246252  0.70865575     0.01390
N254        N  0.35195938  0.71442906  0.80303423     0.01130
C255        C  0.37696644  0.66908744  0.85467878     0.42730
N256        N  0.17803950  0.67467445  0.70328888    -0.25480
C257        C  0.15805465  0.86096580  0.82408786    -0.06400
N258        N  0.12534619  0.77648498  0.66829774    -0.46590
N259        N  0.38548340  0.71331516  0.83418180    -0.46810
C260        C  0.11665454  0.83339696  0.84302047     0.42510
N261        N  0.28503233  0.85322717  0.79936476     0.01380
N262        N  0.16907662  0.68016388  0.79400497    -0.25500
N263        N  0.17936397  0.82717649  0.70078381    -0.26000
N264        N  0.21140791  0.65362246  0.80051614     0.01010
H265        H  0.09996511  0.69251739  0.82869498     0.06900
H266        H  0.32047613  0.60535514  0.83973952     0.06940
N267        N  0.32686665  0.82461856  0.79952448    -0.26040
N268        N  0.32887078  0.67237259  0.70996586    -0.25660
N269        N  0.14506024  0.78940639  0.79177538     0.01380
C270        C  0.32405215  0.87433657  0.65185470     0.42780
C271        C  0.15701028  0.66094330  0.66646223    -0.06910
N272        N  0.32338633  0.67325922  0.80216525    -0.25660
H273        H  0.32488525  0.61513425  0.66075136     0.06920
N274        N  0.28326550  0.88219025  0.67602820    -0.46880
H275        H  0.12345987  0.67785127  0.65230975     0.06910
C276        C  0.16387887  0.64226668  0.85389890     0.42610
C277        C  0.16892401  0.85005252  0.66384758    -0.06410
Co278      Co  0.16007140  0.73181767  0.74747894     0.73820
N279        N  0.22899108  0.61517281  0.67756388    -0.46600
C280        C  0.32823529  0.87678859  0.85253736     0.42880
N281        N  0.11023071  0.78936834  0.82173932    -0.46590
Co282      Co  0.27107177  0.65980010  0.75571787     0.73890
C283        C  0.33639982  0.64250846  0.83353504    -0.06910
C284        C  0.35587539  0.83564410  0.67285004    -0.06480
N285        N  0.17333606  0.83081403  0.79279228    -0.26000
N286        N  0.38686692  0.72130796  0.68098895    -0.46770
H287        H  0.39280358  0.81985673  0.83936649     0.06880
C288        C  0.13669808  0.67389192  0.82518586    -0.06890
Cl289      Cl  0.25128048  0.75105924  0.75266743    -0.49890
C290        C  0.19145900  0.62137294  0.64968482     0.42640
H291        H  0.17422821  0.89742845  0.83252762     0.06850
N292        N  0.21032751  0.63028732  0.83735388    -0.46600
C293        C  0.12207096  0.68593464  0.34664003     0.42490
N294        N  0.14872269  0.71579171  0.28887208     0.01380
C295        C  0.36643111  0.65957129  0.17731437    -0.06500
H296        H  0.38667654  0.68385496  0.34912274     0.06870
C297        C  0.33433021  0.85431284  0.33157430    -0.06850
Co298      Co  0.23575230  0.65838595  0.25112618     0.74180
N299        N  0.32960371  0.67823188  0.30003408    -0.26020
Co300      Co  0.34523782  0.73130701  0.25143575     0.74070
C301        C  0.37295555  0.82241559  0.35269112     0.42590
N302        N  0.21416090  0.85391942  0.28846301     0.01000
N303        N  0.35305139  0.78787253  0.29467944     0.01100
N304        N  0.29569990  0.61047724  0.17767151    -0.46870
H305        H  0.18026266  0.61933032  0.34447996     0.06860
N306        N  0.28733797  0.65138828  0.29792531     0.01390
N307        N  0.35632322  0.78632864  0.20395266     0.01130
C308        C  0.38083680  0.83093677  0.15213698     0.42730
N309        N  0.17291023  0.82554186  0.29008803    -0.25480
C310        C  0.18046820  0.63517067  0.17172676    -0.06400
N311        N  0.11594166  0.72387288  0.31922910    -0.46590
N312        N  0.38978431  0.78656713  0.17282168    -0.46810
C313        C  0.14897651  0.66212276  0.14278418     0.42510
N314        N  0.29451440  0.64504490  0.20799959     0.01380
N315        N  0.17615348  0.82168834  0.19779358    -0.25500
N316        N  0.17725993  0.67461977  0.29425496    -0.26000
N317        N  0.21681828  0.85096354  0.19819876     0.01010
H318        H  0.10949219  0.81796906  0.15858445     0.06900
H319        H  0.32271077  0.89458096  0.16508363     0.06940
N320        N  0.33539100  0.67404319  0.20817527    -0.26040
N321        N  0.32427232  0.82951328  0.29540431    -0.25660
N322        N  0.15814463  0.70920898  0.19709592     0.01380
C323        C  0.31790098  0.63015899  0.35691957     0.42780
C324        C  0.14891669  0.83748058  0.32630966    -0.06910
N325        N  0.32726618  0.82787401  0.20389329    -0.25660
H326        H  0.31589129  0.88892996  0.34254202     0.06920
N327        N  0.27924095  0.62272927  0.33061653    -0.46880
H328        H  0.11525980  0.81937283  0.33842575     0.06910
C329        C  0.17252241  0.87574064  0.14581441     0.42610
C330        C  0.16300609  0.65274109  0.33041296    -0.06410
Co331      Co  0.16224767  0.76831244  0.24306943     0.73820
N332        N  0.21980263  0.88449341  0.32062754    -0.46600
C333        C  0.33995785  0.61786376  0.15738565     0.42880
N334        N  0.13551502  0.70808920  0.15983366    -0.46590
Co335      Co  0.27094662  0.84185479  0.24637826     0.73890
C336        C  0.34006898  0.85806675  0.17251871    -0.06910
C337        C  0.35222448  0.66699124  0.33695756    -0.06480
N338        N  0.18534219  0.66725725  0.20351500    -0.26000
N339        N  0.38201271  0.78236665  0.32780300    -0.46770
H340        H  0.40279574  0.67636436  0.16985498     0.06880
C341        C  0.14609868  0.83452240  0.16587930    -0.06890
Cl342      Cl  0.25354962  0.75002087  0.24787225    -0.49890
C343        C  0.18058114  0.87704586  0.34623673     0.42640
H344        H  0.19968474  0.59870034  0.16813836     0.06850
N345        N  0.21599769  0.88480008  0.16740366    -0.46600
O346        O  0.43281344  0.94849439  0.04549966    -0.80100
O347        O  0.12182528  0.55631466  0.01532936    -0.80130
O348        O  0.04573217  0.94106884  0.05674700    -0.80130
O349        O  0.46232624  0.56318989  0.06700387    -0.80080
O350        O  0.11279063  0.95199921  0.01596680    -0.80200
O351        O  0.40088843  0.54703938  0.02419724    -0.80120
O352        O  0.06217266  0.56288996  0.06223942    -0.80100
O353        O  0.47194626  0.87618120  0.02763190    -0.80140
C354        C  0.44186156  0.90007593  0.05138239     1.09590
C355        C  0.10614509  0.57273899  0.05055774     1.09470
C356        C  0.09363664  0.94019761  0.05092509     1.09610
C357        C  0.41552233  0.56061536  0.05966106     1.09490
O358        O  0.44315442  0.54210834  0.94365269    -0.80100
O359        O  0.06392665  0.95585458  0.93283863    -0.80180
O360        O  0.44853296  0.92909338  0.95682444    -0.80120
O361        O  0.06116272  0.61710240  0.98244168    -0.80100
O362        O  0.06601811  0.55610151  0.93610801    -0.80150
O363        O  0.37791163  0.97059615  0.97536172    -0.80110
O364        O  0.45697092  0.61014492  0.98331564    -0.80070
O365        O  0.04717470  0.89584517  0.97658260    -0.80140
Co366      Co  0.44173393  0.49571535  0.99233819     1.51530
Co367      Co  0.08698184  0.50485238  0.97567058     1.51690
Co368      Co  0.99785182  0.93884876  0.00883941     1.51570
Co369      Co  0.01037154  0.58419901  0.02320269     1.51470
O370        O  0.01552792  0.51210045  0.99974614    -1.42040
C371        C  0.44332189  0.59024506  0.94890217     1.09510
C372        C  0.06039827  0.90924844  0.94079469     1.09600
C373        C  0.40016817  0.93906894  0.95177622     1.09540
C374        C  0.07644893  0.60036827  0.94719677     1.09520
C375        C  0.15193394  0.90483880  0.11173725    -0.13240
C376        C  0.12692852  0.92297932  0.08375598    -0.14800
C377        C  0.13916330  0.64189737  0.10196160    -0.13240
C378        C  0.13150148  0.61143260  0.07433700    -0.14800
C379        C  0.37998003  0.57452778  0.09150018    -0.13240
C380        C  0.35710796  0.59116849  0.12105074    -0.14800
C381        C  0.42177375  0.87330496  0.08646573    -0.13240
C382        C  0.40619095  0.84994036  0.11599848    -0.14800
C383        C  0.08958082  0.84953942  0.87952497    -0.13240
C384        C  0.07322996  0.87257692  0.90921521    -0.14800
C385        C  0.14420146  0.63261349  0.89472930    -0.13240
C386        C  0.11440015  0.62511874  0.92261072    -0.14800
C387        C  0.40628978  0.64804015  0.88848526    -0.13240
C388        C  0.42509661  0.62306381  0.91617087    -0.14800
C389        C  0.37163943  0.91845024  0.91766538    -0.13240
C390        C  0.34727965  0.90259939  0.88861193    -0.14800
C391        C  0.18324912  0.96838407  0.43435163    -0.13310
C392        C  0.22987314  0.95411116  0.45293558     0.08840
C393        C  0.25186191  0.90670619  0.44272961    -0.13310
C394        C  0.22983257  0.87621567  0.41169345    -0.13310
C395        C  0.18593806  0.89298266  0.39003080     0.08840
C396        C  0.16151522  0.93811657  0.40304928    -0.13310
H397        H  0.16562295  0.00485319  0.44191032     0.12820
H398        H  0.28792657  0.39511724  0.45645774     0.12820
H399        H  0.25026921  0.84227342  0.40135879     0.12820
H400        H  0.12876291  0.95270431  0.38607060     0.12820
C401        C  0.32823907  0.53034285  0.43754165    -0.13310
C402        C  0.28025599  0.53630419  0.45650313     0.08840
C403        C  0.25190338  0.58110022  0.44951306    -0.13310
C404        C  0.26944298  0.61730247  0.42119854    -0.13310
C405        C  0.31516012  0.60896923  0.39908039     0.08840
C406        C  0.34568565  0.56651892  0.40902567    -0.13310
H407        H  0.35043661  0.49573110  0.44245821     0.12820
H408        H  0.21464840  0.58626246  0.46351223     0.12820
H409        H  0.24452520  0.64906507  0.41310248     0.12820
H410        H  0.38004662  0.55836636  0.39143509     0.12820
C411        C  0.25999144  0.90461060  0.55258935    -0.13310
C412        C  0.28193988  0.95197849  0.54423259     0.08840
C413        C  0.32710281  0.96571769  0.56498197    -0.13310
C414        C  0.34688400  0.93513985  0.59688755    -0.13310
C415        C  0.32190810  0.89031997  0.60819483     0.08840
C416        C  0.28011705  0.87378626  0.58422631    -0.13310
H417        H  0.22491922  0.89359785  0.53725660     0.12820
H418        H  0.34461087  0.00221273  0.55889038     0.12820
H419        H  0.37807809  0.94937858  0.61566055     0.12820
H420        H  0.25939911  0.83998459  0.59325580     0.12820
C421        C  0.24264089  0.61058533  0.58580280    -0.13310
C422        C  0.19703894  0.60088366  0.60728861     0.08840
C423        C  0.16635862  0.56035187  0.59434139    -0.13310
C424        C  0.18337665  0.52717197  0.56289652    -0.13310
C425        C  0.23104457  0.53430534  0.54395773     0.08840
C426        C  0.25962576  0.57748627  0.55435710    -0.13310
H427        H  0.26735843  0.64116721  0.59594362     0.12820
H428        H  0.13190417  0.55137275  0.61123940     0.12820
H429        H  0.16118944  0.99359718  0.55558138     0.12820
H430        H  0.29671679  0.58338314  0.54050780     0.12820
C431        C  0.40682539  0.75626191  0.44970274    -0.13310
C432        C  0.45484562  0.77750078  0.45693633     0.08840
C433        C  0.46771445  0.82327364  0.43697623    -0.13310
C434        C  0.43543260  0.84444941  0.40676226    -0.13310
C435        C  0.38986668  0.82013187  0.39619685     0.08840
C436        C  0.37435323  0.77772829  0.41969417    -0.13310
H437        H  0.39643455  0.72073273  0.46445248     0.12840
H438        H  0.50474932  0.84016131  0.44217680     0.12820
H439        H  0.44894342  0.87605086  0.38827809     0.12820
H440        H  0.34003285  0.75741467  0.41116008     0.12820
C441        C  0.08089797  0.75260155  0.44375919    -0.13310
C442        C  0.03652914  0.72555380  0.45309531     0.08840
C443        C  0.02691642  0.67932848  0.43223602    -0.13310
C444        C  0.05919176  0.66215279  0.40035735    -0.13310
C445        C  0.10141104  0.69114652  0.38890340     0.08840
C446        C  0.11315728  0.73540983  0.41188142    -0.13310
H447        H  0.08858119  0.78872628  0.45895483     0.12820
H448        H  0.99240464  0.65838378  0.43870041     0.12820
H449        H  0.04856219  0.62893647  0.38221216     0.12820
H450        H  0.14489040  0.75904580  0.40272719     0.12820
C451        C  0.46964831  0.67802709  0.56463123    -0.13310
C452        C  0.45924751  0.72605616  0.54686027     0.08840
C453        C  0.41523835  0.75296086  0.55890223    -0.13310
C454        C  0.38434528  0.73388657  0.59062577    -0.13310
C455        C  0.39734435  0.68803383  0.61116899     0.08840
C456        C  0.43892200  0.65912741  0.59662398    -0.13310
H457        H  0.50373234  0.65690158  0.55580810     0.12820
H458        H  0.40679893  0.79021439  0.54587632     0.12820
H459        H  0.35305033  0.75744808  0.60194709     0.12820
H460        H  0.45062189  0.62463283  0.61268549     0.12820
C461        C  0.07057250  0.84185264  0.58911819    -0.13310
C462        C  0.11352543  0.81244772  0.59979697     0.08840
C463        C  0.12332290  0.76666821  0.57781192    -0.13310
C464        C  0.08774373  0.74760993  0.54934548    -0.13310
C465        C  0.04232930  0.77466123  0.54189102     0.08840
C466        C  0.03513816  0.82299236  0.56034290    -0.13310
H467        H  0.06132050  0.87624982  0.60650939     0.12820
H468        H  0.15554368  0.74261518  0.58640154     0.12820
H469        H  0.09376440  0.71009818  0.53574198     0.12820
H470        H  0.00002962  0.84421014  0.55502935     0.12820
C471        C  0.99862582  0.25025366  0.52062187     0.00600
C472        C  0.49531199  0.24829711  0.47895150     0.00600
C473        C  0.75375960  0.49119565  0.52003739     0.00600
C474        C  0.75801156  0.99205471  0.47840811     0.00600
C475        C  0.63305559  0.31549360  0.64260452     0.42490
N476        N  0.65297140  0.28454740  0.70173975     0.01380
C477        C  0.85620431  0.33688044  0.83174236    -0.06500
H478        H  0.89098417  0.31797001  0.66227733     0.06870
C479        C  0.84195094  0.14910636  0.67362339    -0.06850
Co480      Co  0.73113182  0.34260284  0.75069577     0.74180
N481        N  0.83037228  0.32428155  0.70816686    -0.26020
Co482      Co  0.84260557  0.26973414  0.75596713     0.74070
C483        C  0.88067222  0.18225406  0.65465936     0.42590
N484        N  0.71968456  0.14682972  0.70863137     0.01000
N485        N  0.85619099  0.21430364  0.71269024     0.01100
N486        N  0.78434091  0.38600754  0.83117619    -0.46870
H487        H  0.68582492  0.38476190  0.65242923     0.06860
N488        N  0.78836962  0.35246167  0.70865475     0.01390
N489        N  0.85195921  0.21442834  0.80303356     0.01130
C490        C  0.87696638  0.16908686  0.85467816     0.42730
N491        N  0.67803868  0.17467434  0.70328884    -0.25480
C492        C  0.65805551  0.36096644  0.82408730    -0.06400
N493        N  0.62534628  0.27648497  0.66829731    -0.46590
N494        N  0.88548353  0.21331435  0.83418092    -0.46810
C495        C  0.61665520  0.33339793  0.84302002     0.42510
N496        N  0.78503324  0.35322687  0.79936378     0.01380
N497        N  0.66907606  0.18016445  0.79400498    -0.25500
N498        N  0.67936437  0.32717635  0.70078317    -0.26000
N499        N  0.71140715  0.15362272  0.80051619     0.01010
H500        H  0.59996465  0.19251858  0.82869502     0.06900
H501        H  0.82047546  0.10535489  0.83973949     0.06940
N502        N  0.82686740  0.32461802  0.79952342    -0.26040
N503        N  0.82886987  0.17237133  0.70996554    -0.25660
N504        N  0.64506053  0.28940706  0.79177495     0.01380
C505        C  0.82405244  0.37433514  0.65185345     0.42780
C506        C  0.65700936  0.16094315  0.66646223    -0.06910
N507        N  0.82338581  0.17325873  0.80216493    -0.25660
H508        H  0.82488385  0.11513255  0.66075140     0.06920
N509        N  0.78326608  0.38218934  0.67602716    -0.46880
H510        H  0.62345912  0.17785134  0.65230967     0.06910
C511        C  0.66387807  0.14226750  0.85389903     0.42610
C512        C  0.66892479  0.35005203  0.66384672    -0.06410
Co513      Co  0.66007113  0.23181800  0.74747872     0.73820
N514        N  0.72898969  0.11517203  0.67756410    -0.46600
C515        C  0.82823667  0.37678833  0.85253614     0.42880
N516        N  0.61023104  0.28936934  0.82173892    -0.46590
Co517      Co  0.77107093  0.15979962  0.75571776     0.73890
C518        C  0.83639933  0.14250808  0.83353479    -0.06910
C519        C  0.85587544  0.33564236  0.67284869    -0.06480
N520        N  0.67333667  0.33081448  0.79279173    -0.26000
N521        N  0.88686650  0.22130587  0.68098834    -0.46770
H522        H  0.89280452  0.31985596  0.83936522     0.06880
C523        C  0.63669750  0.17389287  0.82518594    -0.06890
Cl524      Cl  0.75128038  0.25105890  0.75266695    -0.49890
C525        C  0.69145769  0.12137230  0.64968499     0.42640
H526        H  0.67422934  0.39742900  0.83252698     0.06850
N527        N  0.71032658  0.13028765  0.83735397    -0.46600
C528        C  0.62207083  0.18593345  0.34663913     0.42490
N529        N  0.64872283  0.21579119  0.28887153     0.01380
C530        C  0.86643118  0.15957149  0.17731358    -0.06500
H531        H  0.88667639  0.18385469  0.34912235     0.06870
C532        C  0.83433016  0.35431240  0.33157409    -0.06850
Co533      Co  0.73575248  0.15838570  0.25112547     0.74180
N534        N  0.82960381  0.17823153  0.30003350    -0.26020
Co535      Co  0.84523791  0.23130685  0.25143526     0.74070
C536        C  0.87295550  0.32241510  0.35269087     0.42590
N537        N  0.71416089  0.35391904  0.28846283     0.01000
N538        N  0.85305145  0.28787225  0.29467907     0.01100
N539        N  0.79569998  0.11047743  0.17767063    -0.46870
H540        H  0.68026265  0.11932925  0.34447885     0.06860
N541        N  0.78733813  0.15138784  0.29792461     0.01390
N542        N  0.85632324  0.28632865  0.20395229     0.01130
C543        C  0.88083669  0.33093694  0.15213668     0.42730
N544        N  0.67291028  0.32554141  0.29008784    -0.25480
C545        C  0.68046837  0.13517077  0.17172602    -0.06400
N546        N  0.61594160  0.22387199  0.31922846    -0.46590
N547        N  0.88978427  0.28656725  0.17282128    -0.46810
C548        C  0.64897663  0.16212297  0.14278357     0.42510
N549        N  0.79451455  0.14504489  0.20799886     0.01380
N550        N  0.67615345  0.32168829  0.19779333    -0.25500
N551        N  0.67726010  0.17461924  0.29425424    -0.26000
N552        N  0.71681825  0.35096349  0.19819853     0.01010
H553        H  0.60949224  0.31796895  0.15858410     0.06900
H554        H  0.82271062  0.39458105  0.16508347     0.06940
N555        N  0.83539115  0.17404318  0.20817461    -0.26040
N556        N  0.82427233  0.32951297  0.29540403    -0.25660
N557        N  0.65814475  0.20920895  0.19709541     0.01380
C558        C  0.81790094  0.13015853  0.35691895     0.42780
C559        C  0.64891680  0.33747993  0.32630955    -0.06910
N560        N  0.82726616  0.32787400  0.20389302    -0.25660
H561        H  0.81589117  0.38892944  0.34254189     0.06920
N562        N  0.77924104  0.12272878  0.33061579    -0.46880
H563        H  0.61526002  0.31937201  0.33842566     0.06910
C564        C  0.67252245  0.37574057  0.14581413     0.42610
C565        C  0.66300615  0.15274019  0.33041204    -0.06410
Co566      Co  0.66224774  0.26831219  0.24306907     0.73820
N567        N  0.71980264  0.38449295  0.32062741    -0.46600
C568        C  0.83995785  0.11786408  0.15738471     0.42880
N569        N  0.63551507  0.20808931  0.15983318    -0.46590
Co570      Co  0.77094660  0.34185461  0.24637802     0.73890
C571        C  0.84006889  0.35806684  0.17251848    -0.06910
C572        C  0.85222444  0.16699088  0.33695705    -0.06480
N573        N  0.68534238  0.16725721  0.20351434    -0.26000
N574        N  0.88201272  0.28236628  0.32780264    -0.46770
H575        H  0.90279576  0.17636464  0.16985417     0.06880
C576        C  0.64609868  0.33452235  0.16587902    -0.06890
Cl577      Cl  0.75354970  0.25002067  0.24787181    -0.49890
C578        C  0.68058121  0.37704524  0.34623664     0.42640
H579        H  0.69968490  0.09870046  0.16813751     0.06850
N580        N  0.71599771  0.38479999  0.16740341    -0.46600
O581        O  0.93281339  0.44849444  0.04549917    -0.80100
O582        O  0.62182506  0.05631472  0.01532908    -0.80130
O583        O  0.54573229  0.44106863  0.05674681    -0.80130
O584        O  0.96232606  0.06319013  0.06700315    -0.80080
O585        O  0.61279048  0.45199929  0.01596637    -0.80200
O586        O  0.90088854  0.04703939  0.02419630    -0.80120
O587        O  0.56217286  0.06288966  0.06223952    -0.80100
O588        O  0.97194645  0.37618123  0.02763186    -0.80140
C589        C  0.94186152  0.40007603  0.05138210     1.09590
C590        C  0.60614513  0.07273891  0.05055757     1.09470
C591        C  0.59363672  0.44019748  0.05092471     1.09610
C592        C  0.91552221  0.06061560  0.05966013     1.09490
O593        O  0.94315518  0.04210794  0.94365197    -0.80100
O594        O  0.56392582  0.45585512  0.93283841    -0.80180
O595        O  0.94853373  0.42909303  0.95682409    -0.80120
O596        O  0.56116220  0.11710260  0.98244198    -0.80100
O597        O  0.56601728  0.05610193  0.93610809    -0.80150
O598        O  0.87791218  0.47059579  0.97536078    -0.80110
O599        O  0.95697142  0.11014471  0.98331475    -0.80070
O600        O  0.54717428  0.39584538  0.97658218    -0.80140
Co601      Co  0.94173429  0.99571520  0.99233761     1.51530
Co602      Co  0.58698132  0.00485262  0.97567041     1.51690
Co603      Co  0.49785159  0.43884879  0.00883946     1.51570
Co604      Co  0.51037138  0.08419900  0.02320319     1.51470
O605        O  0.51552758  0.01210056  0.99974636    -1.42040
C606        C  0.94332253  0.09024467  0.94890131     1.09510
C607        C  0.56039784  0.40924892  0.94079433     1.09600
C608        C  0.90016899  0.43906853  0.95177549     1.09540
C609        C  0.57644814  0.10036866  0.94719693     1.09520
C610        C  0.65193414  0.40483861  0.11173681    -0.13240
C611        C  0.62692878  0.42297911  0.08375547    -0.14800
C612        C  0.63916329  0.14189769  0.10196101    -0.13240
C613        C  0.63150146  0.11143278  0.07433653    -0.14800
C614        C  0.87997977  0.07452821  0.09149908    -0.13240
C615        C  0.85710782  0.09116898  0.12104968    -0.14800
C616        C  0.92177352  0.37330519  0.08646541    -0.13240
C617        C  0.90619072  0.34994060  0.11599816    -0.14800
C618        C  0.58958145  0.34954055  0.87952449    -0.13240
C619        C  0.57323015  0.37257771  0.90921475    -0.14800
C620        C  0.64420045  0.13261414  0.89472935    -0.13240
C621        C  0.61439918  0.12511926  0.92261078    -0.14800
C622        C  0.90629006  0.14803948  0.88848440    -0.13240
C623        C  0.92509714  0.12306323  0.91616994    -0.14800
C624        C  0.87164065  0.41844973  0.91766444    -0.13240
C625        C  0.84728112  0.40259892  0.88861082    -0.14800
C626        C  0.68324861  0.46838379  0.43435134    -0.13310
C627        C  0.72987269  0.45411121  0.45293536     0.08840
C628        C  0.75186178  0.40670636  0.44272946    -0.13310
C629        C  0.72983265  0.37621561  0.41169336    -0.13310
C630        C  0.68593803  0.39298223  0.39003067     0.08840
C631        C  0.66151492  0.43811605  0.40304904    -0.13310
H632        H  0.66562222  0.50485283  0.44190995     0.12820
H633        H  0.78792663  0.89511768  0.45645762     0.12820
H634        H  0.75026951  0.34227345  0.40135877     0.12820
H635        H  0.62876253  0.45270353  0.38607032     0.12820
C636        C  0.82823859  0.03034288  0.43754157    -0.13310
C637        C  0.78025542  0.03630434  0.45650289     0.08840
C638        C  0.75190281  0.08110029  0.44951249    -0.13310
C639        C  0.76944251  0.11730233  0.42119781    -0.13310
C640        C  0.81515977  0.10896897  0.39907984     0.08840
C641        C  0.84568528  0.06651874  0.40902544    -0.13310
H642        H  0.85043612  0.99573119  0.44245837     0.12820
H643        H  0.71464777  0.08626260  0.46351154     0.12820
H644        H  0.74452476  0.14906485  0.41310152     0.12820
H645        H  0.88004634  0.05836607  0.39143503     0.12820
C646        C  0.75999151  0.40461024  0.55258844    -0.13310
C647        C  0.78193969  0.45197839  0.54423216     0.08840
C648        C  0.82710255  0.46571750  0.56498165    -0.13310
C649        C  0.84688400  0.43513920  0.59688684    -0.13310
C650        C  0.82190841  0.39031897  0.60819367     0.08840
C651        C  0.78011737  0.37378545  0.58422504    -0.13310
H652        H  0.72491933  0.39359754  0.53725562     0.12820
H653        H  0.84461039  0.50221275  0.55889045     0.12820
H654        H  0.87807804  0.44937781  0.61565997     0.12820
H655        H  0.75939960  0.33998355  0.59325421     0.12820
C656        C  0.74263954  0.11058528  0.58580284    -0.13310
C657        C  0.69703776  0.10088308  0.60728874     0.08840
C658        C  0.66635794  0.06035086  0.59434163    -0.13310
C659        C  0.68337626  0.02717116  0.56289672    -0.13310
C660        C  0.73104399  0.03430512  0.54395777     0.08840
C661        C  0.75962470  0.07748640  0.55435710    -0.13310
H662        H  0.76735675  0.14116746  0.59594362     0.12820
H663        H  0.63190368  0.05137130  0.61123974     0.12820
H664        H  0.66118940  0.49359618  0.55558159     0.12820
H665        H  0.79671561  0.08338371  0.54050771     0.12820
C666        C  0.90682521  0.25626083  0.44970230    -0.13310
C667        C  0.95484484  0.27750062  0.45693668     0.08840
C668        C  0.96771312  0.32327398  0.43697709    -0.13310
C669        C  0.93543144  0.34444940  0.40676284    -0.13310
C670        C  0.88986621  0.32013105  0.39619670     0.08840
C671        C  0.87435318  0.27772689  0.41969351    -0.13310
H672        H  0.89643480  0.22073128  0.46445166     0.12840
H673        H  0.00474751  0.34016241  0.44217830     0.12820
H674        H  0.94894193  0.37605136  0.38827907     0.12820
H675        H  0.84003333  0.25741270  0.41115889     0.12820
C676        C  0.58089916  0.25259921  0.44375907    -0.13310
C677        C  0.53652913  0.22555290  0.45309425     0.08840
C678        C  0.52691488  0.17932860  0.43223396    -0.13310
C679        C  0.55919005  0.16215255  0.40035534    -0.13310
C680        C  0.60141073  0.19114488  0.38890243     0.08840
C681        C  0.61315832  0.23540712  0.41188133    -0.13310
H682        H  0.58858350  0.28872326  0.45895541     0.12820
H683        H  0.49240219  0.15838505  0.43869761     0.12820
H684        H  0.54855943  0.12893719  0.38220939     0.12820
H685        H  0.64489243  0.25904217  0.40272777     0.12820
C686        C  0.96964948  0.17802726  0.56463243    -0.13310
C687        C  0.95924678  0.22605549  0.54686071     0.08840
C688        C  0.91523588  0.25295816  0.55890148    -0.13310
C689        C  0.88434286  0.23388286  0.59062467    -0.13310
C690        C  0.89734364  0.18803111  0.61116865     0.08840
C691        C  0.93892319  0.15912658  0.59662478    -0.13310
H692        H  0.00373482  0.15690331  0.55581022     0.12820
H693        H  0.90679499  0.29021107  0.54587501     0.12820
H694        H  0.85304658  0.25744312  0.60194529     0.12820
H695        H  0.95062444  0.12463292  0.61268696     0.12820
C696        C  0.57057494  0.34185244  0.58911602    -0.13310
C697        C  0.61352680  0.31244664  0.59979604     0.08840
C698        C  0.62332354  0.26666624  0.57781200    -0.13310
C699        C  0.58774438  0.24760799  0.54934555    -0.13310
C700        C  0.54233082  0.27466025  0.54188997     0.08840
C701        C  0.53514068  0.32299223  0.56034063    -0.13310
H702        H  0.56132353  0.37625043  0.60650637     0.12820
H703        H  0.65554354  0.24261265  0.58640249     0.12820
H704        H  0.59376427  0.21009564  0.53574293     0.12820
H705        H  0.50003281  0.34421079  0.55502617     0.12820
C706        C  0.99862586  0.75025365  0.52062186     0.00600
C707        C  0.49531202  0.74829711  0.47895149     0.00600
C708        C  0.75375962  0.99119564  0.52003741     0.00600
C709        C  0.75801154  0.49205474  0.47840809     0.00600
C710        C  0.63305561  0.81549360  0.64260451     0.42490
N711        N  0.65297139  0.78454741  0.70173975     0.01380
C712        C  0.85620425  0.83688045  0.83174241    -0.06500
H713        H  0.89098420  0.81797009  0.66227740     0.06870
C714        C  0.84195096  0.64910643  0.67362340    -0.06850
Co715      Co  0.73113179  0.84260286  0.75069579     0.74180
N716        N  0.83037227  0.82428159  0.70816691    -0.26020
Co717      Co  0.84260555  0.76973417  0.75596717     0.74070
C718        C  0.88067223  0.68225414  0.65465937     0.42590
N719        N  0.71968457  0.64682974  0.70863136     0.01000
N720        N  0.85619099  0.71430369  0.71269027     0.01100
N721        N  0.78434085  0.88600755  0.83117622    -0.46870
H722        H  0.68582493  0.88476190  0.65242923     0.06860
N723        N  0.78836960  0.85246171  0.70865478     0.01390
N724        N  0.85195919  0.71442835  0.80303359     0.01130
C725        C  0.87696635  0.66908686  0.85467818     0.42730
N726        N  0.67803868  0.67467435  0.70328883    -0.25480
C727        C  0.65805546  0.86096644  0.82408730    -0.06400
N728        N  0.62534628  0.77648498  0.66829731    -0.46590
N729        N  0.88548350  0.71331436  0.83418095    -0.46810
C730        C  0.61665515  0.83339792  0.84302002     0.42510
N731        N  0.78503320  0.85322688  0.79936382     0.01380
N732        N  0.66907604  0.68016445  0.79400498    -0.25500
N733        N  0.67936436  0.82717636  0.70078317    -0.26000
N734        N  0.71140713  0.65362273  0.80051619     0.01010
H735        H  0.59996463  0.69251857  0.82869501     0.06900
H736        H  0.82047544  0.60535489  0.83973949     0.06940
N737        N  0.82686735  0.82461804  0.79952346    -0.26040
N738        N  0.82886988  0.67237137  0.70996556    -0.25660
N739        N  0.64506049  0.78940706  0.79177495     0.01380
C740        C  0.82405246  0.87433521  0.65185351     0.42780
C741        C  0.65700938  0.66094316  0.66646222    -0.06910
N742        N  0.82338579  0.67325875  0.80216495    -0.25660
H743        H  0.82488387  0.61513262  0.66075140     0.06920
N744        N  0.78326608  0.88218939  0.67602720    -0.46880
H745        H  0.62345913  0.67785135  0.65230966     0.06910
C746        C  0.66387805  0.64226749  0.85389902     0.42610
C747        C  0.66892480  0.85005204  0.66384672    -0.06410
Co748      Co  0.66007112  0.73181801  0.74747871     0.73820
N749        N  0.72898971  0.61517206  0.67756409    -0.46600
C750        C  0.82823660  0.87678833  0.85253619     0.42880
N751        N  0.61023100  0.78936933  0.82173892    -0.46590
Co752      Co  0.77107093  0.65979964  0.75571777     0.73890
C753        C  0.83639931  0.64250808  0.83353480    -0.06910
C754        C  0.85587545  0.83564243  0.67284875    -0.06480
N755        N  0.67333663  0.83081448  0.79279174    -0.26000
N756        N  0.88686650  0.72130594  0.68098837    -0.46770
H757        H  0.89280446  0.81985598  0.83936527     0.06880
C758        C  0.63669748  0.67389287  0.82518593    -0.06890
Cl759      Cl  0.75128036  0.75105892  0.75266696    -0.49890
C760        C  0.69145772  0.62137233  0.64968497     0.42640
H761        H  0.67422928  0.89742900  0.83252700     0.06850
N762        N  0.71032656  0.63028766  0.83735396    -0.46600
C763        C  0.62207084  0.68593338  0.34663913     0.42490
N764        N  0.64872284  0.71579115  0.28887154     0.01380
C765        C  0.86643118  0.65957150  0.17731356    -0.06500
H766        H  0.88667641  0.68385470  0.34912234     0.06870
C767        C  0.83433016  0.85431240  0.33157409    -0.06850
Co768      Co  0.73575250  0.65838569  0.25112547     0.74180
N769        N  0.82960384  0.67823153  0.30003349    -0.26020
Co770      Co  0.84523792  0.73130685  0.25143526     0.74070
C771        C  0.87295551  0.82241510  0.35269087     0.42590
N772        N  0.71416088  0.85391902  0.28846285     0.01000
N773        N  0.85305145  0.78787225  0.29467907     0.01100
N774        N  0.79569999  0.61047743  0.17767062    -0.46870
H775        H  0.68026268  0.61932920  0.34447883     0.06860
N776        N  0.78733816  0.65138783  0.29792460     0.01390
N777        N  0.85632322  0.78632867  0.20395230     0.01130
C778        C  0.88083666  0.83093697  0.15213668     0.42730
N779        N  0.67291028  0.82554137  0.29008787    -0.25480
C780        C  0.68046839  0.63517076  0.17172602    -0.06400
N781        N  0.61594161  0.72387192  0.31922847    -0.46590
N782        N  0.88978425  0.78656727  0.17282128    -0.46810
C783        C  0.64897663  0.66212296  0.14278358     0.42510
N784        N  0.79451457  0.64504489  0.20799885     0.01380
N785        N  0.67615343  0.82168828  0.19779336    -0.25500
N786        N  0.67726012  0.67461920  0.29425425    -0.26000
N787        N  0.71681822  0.85096348  0.19819856     0.01010
H788        H  0.60949221  0.81796894  0.15858414     0.06900
H789        H  0.82271058  0.89458107  0.16508349     0.06940
N790        N  0.83539115  0.67404319  0.20817460    -0.26040
N791        N  0.82427232  0.82951296  0.29540404    -0.25660
N792        N  0.65814475  0.70920893  0.19709542     0.01380
C793        C  0.81790098  0.63015852  0.35691894     0.42780
C794        C  0.64891681  0.83747987  0.32630959    -0.06910
N795        N  0.82726614  0.82787401  0.20389303    -0.25660
H796        H  0.81589117  0.88892943  0.34254190     0.06920
N797        N  0.77924108  0.62272876  0.33061578    -0.46880
H798        H  0.61526004  0.81937194  0.33842571     0.06910
C799        C  0.67252241  0.87574057  0.14581416     0.42610
C800        C  0.66300617  0.65274014  0.33041204    -0.06410
Co801      Co  0.66224774  0.76831216  0.24306909     0.73820
N802        N  0.71980263  0.88449292  0.32062744    -0.46600
C803        C  0.83995786  0.61786410  0.15738470     0.42880
N804        N  0.63551507  0.70808929  0.15983320    -0.46590
Co805      Co  0.77094659  0.84185460  0.24637804     0.73890
C806        C  0.84006886  0.85806686  0.17251849    -0.06910
C807        C  0.85222446  0.66699089  0.33695704    -0.06480
N808        N  0.68534238  0.66725720  0.20351435    -0.26000
N809        N  0.88201274  0.78236628  0.32780264    -0.46770
H810        H  0.90279576  0.67636466  0.16985415     0.06880
C811        C  0.64609865  0.83452234  0.16587905    -0.06890
Cl812      Cl  0.75354970  0.75002066  0.24787182    -0.49890
C813        C  0.68058123  0.87704518  0.34623668     0.42640
H814        H  0.69968492  0.59870046  0.16813750     0.06850
N815        N  0.71599768  0.88479999  0.16740344    -0.46600
O816        O  0.93281336  0.94849448  0.04549917    -0.80100
O817        O  0.62182506  0.55631474  0.01532907    -0.80130
O818        O  0.54573226  0.94106863  0.05674682    -0.80130
O819        O  0.96232607  0.56319011  0.06700315    -0.80080
O820        O  0.61279046  0.95199927  0.01596638    -0.80200
O821        O  0.90088854  0.54703936  0.02419630    -0.80120
O822        O  0.56217286  0.56288966  0.06223951    -0.80100
O823        O  0.97194641  0.87618125  0.02763187    -0.80140
C824        C  0.94186149  0.90007606  0.05138210     1.09590
C825        C  0.60614513  0.57273893  0.05055756     1.09470
C826        C  0.59363669  0.94019747  0.05092472     1.09610
C827        C  0.91552221  0.56061557  0.05966013     1.09490
O828        O  0.94315518  0.54210792  0.94365197    -0.80100
O829        O  0.56392581  0.95585510  0.93283842    -0.80180
O830        O  0.94853370  0.92909305  0.95682410    -0.80120
O831        O  0.56116218  0.61710261  0.98244198    -0.80100
O832        O  0.56601726  0.55610195  0.93610809    -0.80150
O833        O  0.87791216  0.97059583  0.97536080    -0.80110
O834        O  0.95697141  0.61014470  0.98331475    -0.80070
O835        O  0.54717424  0.89584537  0.97658219    -0.80140
Co836      Co  0.94173430  0.49571517  0.99233761     1.51530
Co837      Co  0.58698132  0.50485264  0.97567040     1.51690
Co838      Co  0.49785157  0.93884879  0.00883946     1.51570
Co839      Co  0.51037137  0.58419900  0.02320319     1.51470
O840        O  0.51552759  0.51210056  0.99974636    -1.42040
C841        C  0.94332252  0.59024465  0.94890131     1.09510
C842        C  0.56039780  0.90924890  0.94079434     1.09600
C843        C  0.90016896  0.93906856  0.95177551     1.09540
C844        C  0.57644812  0.60036867  0.94719693     1.09520
C845        C  0.65193409  0.90483860  0.11173684    -0.13240
C846        C  0.62692874  0.92297909  0.08375549    -0.14800
C847        C  0.63916329  0.64189769  0.10196101    -0.13240
C848        C  0.63150146  0.61143279  0.07433653    -0.14800
C849        C  0.87997978  0.57452820  0.09149907    -0.13240
C850        C  0.85710782  0.59116899  0.12104967    -0.14800
C851        C  0.92177348  0.87330523  0.08646542    -0.13240
C852        C  0.90619069  0.84994064  0.11599816    -0.14800
C853        C  0.58958140  0.84954053  0.87952449    -0.13240
C854        C  0.57323011  0.87257769  0.90921476    -0.14800
C855        C  0.64420043  0.63261415  0.89472934    -0.13240
C856        C  0.61439916  0.62511928  0.92261077    -0.14800
C857        C  0.90629004  0.64803947  0.88848441    -0.13240
C858        C  0.92509712  0.62306321  0.91616994    -0.14800
C859        C  0.87164061  0.91844976  0.91766446    -0.13240
C860        C  0.84728106  0.90259894  0.88861085    -0.14800
C861        C  0.68324862  0.96838372  0.43435140    -0.13310
C862        C  0.72987272  0.95411117  0.45293539     0.08840
C863        C  0.75186183  0.90670634  0.44272948    -0.13310
C864        C  0.72983270  0.87621558  0.41169338    -0.13310
C865        C  0.68593806  0.89298217  0.39003072     0.08840
C866        C  0.66151492  0.93811597  0.40304910    -0.13310
H867        H  0.66562220  0.00485275  0.44191001     0.12820
H868        H  0.78792656  0.39511768  0.45645762     0.12820
H869        H  0.75026958  0.84227343  0.40135879     0.12820
H870        H  0.62876251  0.95270344  0.38607040     0.12820
C871        C  0.82823859  0.53034288  0.43754156    -0.13310
C872        C  0.78025542  0.53630436  0.45650288     0.08840
C873        C  0.75190284  0.58110033  0.44951249    -0.13310
C874        C  0.76944256  0.61730236  0.42119781    -0.13310
C875        C  0.81515981  0.60896897  0.39907984     0.08840
C876        C  0.84568530  0.56651873  0.40902543    -0.13310
H877        H  0.85043610  0.49573117  0.44245835     0.12820
H878        H  0.71464780  0.58626265  0.46351154     0.12820
H879        H  0.74452481  0.64906489  0.41310152     0.12820
H880        H  0.88004635  0.55836604  0.39143502     0.12820
C881        C  0.75999159  0.90461024  0.55258847    -0.13310
C882        C  0.78193973  0.95197841  0.54423219     0.08840
C883        C  0.82710256  0.96571757  0.56498171    -0.13310
C884        C  0.84688401  0.93513929  0.59688691    -0.13310
C885        C  0.82190845  0.89031903  0.60819373     0.08840
C886        C  0.78011745  0.87378547  0.58422508    -0.13310
H887        H  0.72491943  0.89359751  0.53725562     0.12820
H888        H  0.84461037  0.00221284  0.55889052     0.12820
H889        H  0.87807802  0.94937792  0.61566006     0.12820
H890        H  0.75939970  0.83998355  0.59325424     0.12820
C891        C  0.74263958  0.61058527  0.58580284    -0.13310
C892        C  0.69703779  0.60088310  0.60728874     0.08840
C893        C  0.66635795  0.56035090  0.59434161    -0.13310
C894        C  0.68337625  0.52717119  0.56289670    -0.13310
C895        C  0.73104400  0.53430513  0.54395776     0.08840
C896        C  0.75962474  0.57748638  0.55435710    -0.13310
H897        H  0.76735680  0.64116743  0.59594362     0.12820
H898        H  0.63190367  0.55137136  0.61123971     0.12820
H899        H  0.66118942  0.99359613  0.55558162     0.12820
H900        H  0.79671565  0.58338368  0.54050771     0.12820
C901        C  0.90682523  0.75626085  0.44970232    -0.13310
C902        C  0.95484488  0.77750062  0.45693667     0.08840
C903        C  0.96771318  0.82327396  0.43697705    -0.13310
C904        C  0.93543150  0.84444939  0.40676280    -0.13310
C905        C  0.88986624  0.82013105  0.39619669     0.08840
C906        C  0.87435320  0.77772693  0.41969352    -0.13310
H907        H  0.89643480  0.72073132  0.46445169     0.12840
H908        H  0.00474758  0.84016236  0.44217824     0.12820
H909        H  0.94894200  0.87605132  0.38827902     0.12820
H910        H  0.84003333  0.75741275  0.41115893     0.12820
C911        C  0.58089922  0.75259910  0.44375910    -0.13310
C912        C  0.53652914  0.72555285  0.45309424     0.08840
C913        C  0.52691481  0.67932860  0.43223389    -0.13310
C914        C  0.55918998  0.66215253  0.40035528    -0.13310
C915        C  0.60141073  0.69114478  0.38890242     0.08840
C916        C  0.61315838  0.73540697  0.41188137    -0.13310
H917        H  0.58858362  0.78872311  0.45895547     0.12820
H918        H  0.49240207  0.65838511  0.43869751     0.12820
H919        H  0.54855931  0.62893722  0.38220929     0.12820
H920        H  0.64489255  0.75904197  0.40272784     0.12820
C921        C  0.96964941  0.67802726  0.56463239    -0.13310
C922        C  0.95924679  0.72605553  0.54686071     0.08840
C923        C  0.91523596  0.75295828  0.55890152    -0.13310
C924        C  0.88434293  0.73388300  0.59062472    -0.13310
C925        C  0.89734364  0.68803121  0.61116867     0.08840
C926        C  0.93892312  0.65912661  0.59662475    -0.13310
H927        H  0.00373471  0.65690325  0.55581015     0.12820
H928        H  0.90679513  0.79021121  0.54587508     0.12820
H929        H  0.85304671  0.75744331  0.60194536     0.12820
H930        H  0.95062432  0.62463292  0.61268690     0.12820
C931        C  0.57057502  0.84185245  0.58911596    -0.13310
C932        C  0.61352684  0.81244662  0.59979602     0.08840
C933        C  0.62332356  0.76666620  0.57781201    -0.13310
C934        C  0.58774440  0.74760794  0.54934557    -0.13310
C935        C  0.54233086  0.77466024  0.54188996     0.08840
C936        C  0.53514076  0.82299224  0.56034058    -0.13310
H937        H  0.56132362  0.87625046  0.60650629     0.12820
H938        H  0.65554354  0.74261258  0.58640254     0.12820
H939        H  0.59376427  0.71009557  0.53574297     0.12820
H940        H  0.50003291  0.84421082  0.55502609     0.12820
loop_ 
_geom_bond_atom_site_label_1 
_geom_bond_atom_site_label_2 
_geom_bond_distance 
_geom_bond_site_symmetry_2 
_ccdc_geom_bond_type 
C1          C217   1.483       .  S
C1          C700   1.482       .  S
C1          C472   1.343       .  D
C2          C207   1.483   1_655  S
C2          C667   1.481       .  S
C2          C471   1.343       .  D
C3          C177   1.481       .  S
C3          C425   1.483       .  S
C3          C239   1.343       .  D
C4          C167   1.483   1_565  S
C4          C392   1.485       .  S
C4          C238   1.343       .  D
C5           N23   1.333       .  A
C5           C42   1.476       .  S
C5          C227   1.469       .  S
N6           N23   1.312       .  A
N6           N28   1.319       .  A
N6          Co43   2.028       .  S
C7           N32   1.329       .  A
C7           C45   1.433       .  S
C7           H52   1.081       .  S
H8           C49   1.080       .  S
C9           N33   1.358       .  A
C9           C13   1.476       .  S
C9           H38   1.080       .  S
Co10         N28   2.139       .  S
Co10         N18   2.040       .  S
Co10         N50   2.060       .  S
Co10         N26   2.125       .  S
Co10        Cl54   2.449       .  S
N11          C49   1.354       .  A
N11          N18   1.319       .  A
N11         Co12   2.123       .  S
Co12         N15   2.035       .  S
Co12         N32   2.041       .  S
Co12         N19   2.110       .  S
Co12        Cl54   2.450       .  S
C13          N51   1.335       .  A
C13         C220   1.474       .  S
N14          N21   1.317       .  A
N14          N44   1.316       .  A
N14         Co47   2.053       .  S
N15          N33   1.319       .  A
N15          N51   1.314       .  A
N16          C45   1.358       .  A
N16          N26   1.332       .  A
H17          C42   1.081       .  S
N18          N39   1.314       .  A
N19          N37   1.319       .  A
N19          N24   1.331       .  A
C20          N24   1.355       .  A
C20          C48   1.444       .  S
C20         C152   1.438       .  S
N21          C36   1.353       .  A
N21         Co43   2.108       .  S
C22          N50   1.335       .  A
C22          C25   1.446       .  S
C22          H56   1.082       .  S
C25          N46   1.349       .  A
C25         C148   1.432       .  S
N26          N32   1.321       .  A
N27          C53   1.326       .  A
N27          N29   1.320       .  A
N27         Co43   2.032       .  S
N28          C42   1.358       .  A
N29          N57   1.335       .  A
N29         Co47   2.136       .  S
H30          C53   1.080       .  S
H31          C48   1.082       .  S
N33         Co47   2.142       .  S
N34          N46   1.328       .  A
N34          N50   1.319       .  A
N34         Co43   2.104       .  S
C35          N39   1.336       .  A
C35          C49   1.470       .  S
C35         C180   1.467       .  S
C36          C55   1.468       .  S
C36          H40   1.081       .  S
N37          C48   1.334       .  A
N37         Co47   2.057       .  S
C41          N57   1.362       .  A
C41          C53   1.427       .  S
C41         C150   1.435       .  S
Co43        Cl54   2.453       .  S
N44          C55   1.338       .  A
C45         C155   1.431       .  S
Co47        Cl54   2.441       .  S
C55         C187   1.469       .  S
C58          N76   1.338       .  A
C58          C95   1.469       .  S
C58         C210   1.469       .  S
N59          N76   1.316       .  A
N59          N81   1.317       .  A
N59         Co96   2.052       .  S
C60          N85   1.335       .  A
C60          C98   1.446       .  S
C60         H105   1.082       .  S
H61         C102   1.081       .  S
C62          N86   1.356       .  A
C62          C66   1.472       .  S
C62          H91   1.080       .  S
Co63         N81   2.108       .  S
Co63         N71   2.028       .  S
Co63        N103   2.032       .  S
Co63         N79   2.100       .  S
Co63       Cl107   2.451       .  S
N64         C102   1.357       .  A
N64          N71   1.319       .  A
N64         Co65   2.138       .  S
Co65         N68   2.038       .  S
Co65         N85   2.058       .  S
Co65         N72   2.125       .  S
Co65       Cl107   2.450       .  S
C66         N104   1.335       .  A
C66         C200   1.467       .  S
N67          N74   1.319       .  A
N67          N97   1.314       .  A
N67        Co100   2.035       .  S
N68          N86   1.319       .  A
N68         N104   1.314       .  A
N69          C98   1.348       .  A
N69          N79   1.327       .  A
H70          C95   1.081       .  S
N71          N92   1.313       .  A
N72          N90   1.321       .  A
N72          N77   1.332       .  A
C73          N77   1.359       .  A
C73         C101   1.435       .  S
C73         C147   1.433       .  S
N74          C89   1.358       .  A
N74         Co96   2.143       .  S
C75         N103   1.327       .  A
C75          C78   1.426       .  S
C75         H109   1.080       .  S
C78          N99   1.363       .  A
C78         C142   1.436       .  S
N79          N85   1.319       .  A
N80         C106   1.334       .  A
N80          N82   1.319       .  A
N80         Co96   2.057       .  S
N81          C95   1.353       .  A
N82         N110   1.331       .  A
N82        Co100   2.110       .  S
H83         C106   1.082       .  S
H84         C101   1.082       .  S
N86        Co100   2.127       .  S
N87          N99   1.336       .  A
N87         N103   1.319       .  A
N87         Co96   2.138       .  S
C88          N92   1.333       .  A
C88         C102   1.475       .  S
C88         C170   1.469       .  S
C89         C108   1.477       .  S
C89          H93   1.080       .  S
N90         C101   1.330       .  A
N90        Co100   2.042       .  S
C94         N110   1.355       .  A
C94         C106   1.443       .  S
C94         C140   1.438       .  S
Co96       Cl107   2.440       .  S
N97         C108   1.335       .  A
C98         C145   1.429       .  S
Co100      Cl107   2.452       .  S
C108        C160   1.473       .  S
O111        C119   1.301       .  A
O111       Co366   2.128   1_554  S
O112        C120   1.277       .  A
O112       Co132   2.068   1_554  S
O113        C121   1.270       .  A
O113       Co133   1.985   1_455  S
O114        C122   1.251       .  A
O114       Co604   1.975       .  S
O115        C121   1.272       .  A
O115       Co367   2.010   1_554  S
O116        C122   1.253       .  A
O116       Co131   1.990   1_544  S
O117        C120   1.243       .  A
O117       Co134   1.926       .  S
O118        C119   1.258       .  A
O118       Co603   1.884       .  S
C119        C146   1.434       .  S
C120        C143   1.434       .  S
C121        C141   1.439       .  S
C122        C144   1.429       .  S
O123        C136   1.270       .  A
O123       Co131   1.985   1_545  S
O124        C137   1.252       .  A
O124       Co367   1.975       .  S
O125        C138   1.301       .  A
O125       Co603   2.127   1_556  S
O126        C139   1.277       .  A
O126       Co134   2.067   1_556  S
O127        C139   1.244       .  A
O127       Co132   1.927       .  S
O128        C138   1.258       .  A
O128       Co366   1.882       .  S
O129        C136   1.273       .  A
O129       Co604   2.011   1_556  S
O130        C137   1.255       .  A
O130       Co133   1.994   1_456  S
Co131       O346   2.128   1_556  S
Co131       O363   1.882       .  S
Co131       O605   1.999   1_565  S
Co132       O350   2.010   1_546  S
Co132       O359   1.975   1_545  S
Co132       O135   2.035       .  S
Co133       O588   1.884       .  S
Co133       O595   2.127   1_554  S
Co133       O370   2.000   1_654  S
Co134       O584   1.975   1_455  S
Co134       O599   2.011   1_454  S
Co134       O135   2.032   1_554  S
O135       Co601   1.999   1_445  S
O135       Co368   2.000   1_446  S
C136        C153   1.439       .  S
C137        C149   1.432       .  S
C138        C154   1.433       .  S
C139        C151   1.433       .  S
C140        C141   1.208       .  T
C142        C143   1.209       .  T
C144        C145   1.202       .  T
C146        C147   1.206       .  T
C148        C149   1.204       .  T
C150        C151   1.208       .  T
C152        C153   1.208       .  T
C154        C155   1.205       .  T
C156        H162   1.083       .  S
C156        C157   1.407       .  A
C156        C161   1.402       .  A
C157        C239   1.485       .  S
C157        C158   1.400       .  A
C158        H398   1.083       .  S
C158        C159   1.402       .  A
C159        H164   1.084       .  S
C159        C160   1.410       .  A
C160        C161   1.400       .  A
C161        H165   1.083       .  S
H163        C393   1.083       .  S
C166        H172   1.083   1_545  S
C166        C167   1.406       .  A
C166        C171   1.401       .  A
C167        C168   1.400       .  A
C168        H173   1.083       .  S
C168        C169   1.398       .  A
C169        H174   1.084       .  S
C169        C170   1.409       .  A
C170        C171   1.400       .  A
C171        H175   1.083       .  S
C176        H182   1.083       .  S
C176        C177   1.399       .  A
C176        C181   1.400       .  A
C177        C178   1.407       .  A
C178        H183   1.083       .  S
C178        C179   1.399       .  A
C179        H184   1.083       .  S
C179        C180   1.399       .  A
C180        C181   1.408       .  A
C181        H185   1.084       .  S
C186        H192   1.084       .  S
C186        C187   1.408       .  A
C186        C191   1.399       .  A
C187        C188   1.399       .  A
C188        H193   1.083       .  S
C188        C189   1.400       .  A
C189        H429   1.083   1_545  S
C189        C190   1.405       .  A
C190        C238   1.483   1_545  S
C190        C191   1.401       .  A
C191        H195   1.083       .  S
H194        C424   1.083       .  S
C196        H202   1.083       .  S
C196        C197   1.400       .  A
C196        C201   1.400       .  A
C197        C472   1.481       .  S
C197        C198   1.406       .  A
C198        H203   1.083       .  S
C198        C199   1.399       .  A
C199        H204   1.083       .  S
C199        C200   1.400       .  A
C200        C201   1.409       .  A
C201        H205   1.084       .  S
C206        H212   1.083       .  S
C206        C207   1.401       .  A
C206        C211   1.400       .  A
C207        C208   1.405       .  A
C208        H213   1.083   1_455  S
C208        C209   1.400       .  A
C209        H214   1.083       .  S
C209        C210   1.399       .  A
C210        C211   1.408       .  A
C211        H215   1.084       .  S
C216        H222   1.083       .  S
C216        C217   1.407       .  A
C216        C221   1.402       .  A
C217        C218   1.399       .  A
C218        H223   1.083       .  S
C218        C219   1.400       .  A
C219        H224   1.084       .  S
C219        C220   1.410       .  A
C220        C221   1.400       .  A
C221        H225   1.083       .  S
C226        H232   1.083       .  S
C226        C227   1.400       .  A
C226        C231   1.401       .  A
C227        C228   1.410       .  A
C228        H233   1.084       .  S
C228        C229   1.399       .  A
C229        H234   1.083       .  S
C229        C230   1.399       .  A
C230        C471   1.482   1_455  S
C230        C231   1.406       .  A
C231        H235   1.083       .  S
C236        C452   1.483       .  S
C236        C935   1.482       .  S
C236        C707   1.343       .  D
C237        C902   1.481       .  S
C237        C442   1.483   1_655  S
C237        C706   1.343       .  D
C238        C412   1.481       .  S
C239        C402   1.483       .  S
C240        N258   1.333       .  A
C240        C277   1.476       .  S
C240        C462   1.469       .  S
N241        N258   1.312       .  A
N241        N263   1.319       .  A
N241       Co278   2.028       .  S
C242        N267   1.329       .  A
C242        C280   1.433       .  S
C242        H287   1.081       .  S
H243        C284   1.080       .  S
C244        N268   1.358       .  A
C244        C248   1.476       .  S
C244        H273   1.080       .  S
Co245       N263   2.139       .  S
Co245       N253   2.040       .  S
Co245       N285   2.060       .  S
Co245       N261   2.125       .  S
Co245      Cl289   2.449       .  S
N246        C284   1.354       .  A
N246        N253   1.319       .  A
N246       Co247   2.123       .  S
Co247       N250   2.035       .  S
Co247       N267   2.041       .  S
Co247       N254   2.110       .  S
Co247      Cl289   2.450       .  S
C248        N286   1.335       .  A
C248        C455   1.474       .  S
N249        N256   1.317       .  A
N249        N279   1.316       .  A
N249       Co282   2.053       .  S
N250        N268   1.319       .  A
N250        N286   1.314       .  A
N251        C280   1.358       .  A
N251        N261   1.332       .  A
H252        C277   1.081       .  S
N253        N274   1.314       .  A
N254        N272   1.319       .  A
N254        N259   1.331       .  A
C255        N259   1.355       .  A
C255        C283   1.444       .  S
C255        C387   1.438       .  S
N256        C271   1.353       .  A
N256       Co278   2.108       .  S
C257        N285   1.335       .  A
C257        C260   1.446       .  S
C257        H291   1.082       .  S
C260        N281   1.349       .  A
C260        C383   1.432       .  S
N261        N267   1.321       .  A
N262        C288   1.326       .  A
N262        N264   1.320       .  A
N262       Co278   2.032       .  S
N263        C277   1.358       .  A
N264        N292   1.335       .  A
N264       Co282   2.136       .  S
H265        C288   1.080       .  S
H266        C283   1.082       .  S
N268       Co282   2.142       .  S
N269        N281   1.328       .  A
N269        N285   1.319       .  A
N269       Co278   2.104       .  S
C270        N274   1.336       .  A
C270        C284   1.470       .  S
C270        C415   1.467       .  S
C271        C290   1.468       .  S
C271        H275   1.081       .  S
N272        C283   1.334       .  A
N272       Co282   2.057       .  S
C276        N292   1.362       .  A
C276        C288   1.427       .  S
C276        C385   1.435       .  S
Co278      Cl289   2.453       .  S
N279        C290   1.338       .  A
C280        C390   1.431       .  S
Co282      Cl289   2.441       .  S
C290        C422   1.469       .  S
C293        N311   1.338       .  A
C293        C330   1.469       .  S
C293        C445   1.469       .  S
N294        N311   1.316       .  A
N294        N316   1.317       .  A
N294       Co331   2.052       .  S
C295        N320   1.335       .  A
C295        C333   1.446       .  S
C295        H340   1.082       .  S
H296        C337   1.081       .  S
C297        N321   1.356       .  A
C297        C301   1.472       .  S
C297        H326   1.080       .  S
Co298       N316   2.108       .  S
Co298       N306   2.028       .  S
Co298       N338   2.032       .  S
Co298       N314   2.100       .  S
Co298      Cl342   2.451       .  S
N299        C337   1.357       .  A
N299        N306   1.319       .  A
N299       Co300   2.138       .  S
Co300       N303   2.038       .  S
Co300       N320   2.058       .  S
Co300       N307   2.125       .  S
Co300      Cl342   2.450       .  S
C301        N339   1.335       .  A
C301        C435   1.467       .  S
N302        N309   1.319       .  A
N302        N332   1.314       .  A
N302       Co335   2.035       .  S
N303        N321   1.319       .  A
N303        N339   1.314       .  A
N304        C333   1.348       .  A
N304        N314   1.327       .  A
H305        C330   1.081       .  S
N306        N327   1.313       .  A
N307        N325   1.321       .  A
N307        N312   1.332       .  A
C308        N312   1.359       .  A
C308        C336   1.435       .  S
C308        C382   1.433       .  S
N309        C324   1.358       .  A
N309       Co331   2.143       .  S
C310        N338   1.327       .  A
C310        C313   1.426       .  S
C310        H344   1.080       .  S
C313        N334   1.363       .  A
C313        C377   1.436       .  S
N314        N320   1.319       .  A
N315        C341   1.334       .  A
N315        N317   1.319       .  A
N315       Co331   2.057       .  S
N316        C330   1.353       .  A
N317        N345   1.331       .  A
N317       Co335   2.110       .  S
H318        C341   1.082       .  S
H319        C336   1.082       .  S
N321       Co335   2.127       .  S
N322        N334   1.336       .  A
N322        N338   1.319       .  A
N322       Co331   2.138       .  S
C323        N327   1.333       .  A
C323        C337   1.475       .  S
C323        C405   1.469       .  S
C324        C343   1.477       .  S
C324        H328   1.080       .  S
N325        C336   1.330       .  A
N325       Co335   2.042       .  S
C329        N345   1.355       .  A
C329        C341   1.443       .  S
C329        C375   1.438       .  S
Co331      Cl342   2.440       .  S
N332        C343   1.335       .  A
C333        C380   1.429       .  S
Co335      Cl342   2.452       .  S
C343        C395   1.473       .  S
O346        C354   1.301       .  A
O347        C355   1.277       .  A
O347       Co367   2.068   1_554  S
O348        C356   1.270       .  A
O348       Co368   1.985   1_455  S
O349        C357   1.251       .  A
O349       Co839   1.975       .  S
O350        C356   1.272       .  A
O351        C357   1.253       .  A
O351       Co366   1.990   1_554  S
O352        C355   1.243       .  A
O352       Co369   1.926       .  S
O353        C354   1.258       .  A
O353       Co838   1.884       .  S
C354        C381   1.434       .  S
C355        C378   1.434       .  S
C356        C376   1.439       .  S
C357        C379   1.429       .  S
O358        C371   1.270       .  A
O358       Co366   1.985       .  S
O359        C372   1.252       .  A
O360        C373   1.301       .  A
O360       Co838   2.127   1_556  S
O361        C374   1.277       .  A
O361       Co369   2.067   1_556  S
O362        C374   1.244       .  A
O362       Co367   1.927       .  S
O363        C373   1.258       .  A
O364        C371   1.273       .  A
O364       Co839   2.011   1_556  S
O365        C372   1.255       .  A
O365       Co368   1.994   1_456  S
Co366       O840   1.999       .  S
Co367       O370   2.035       .  S
Co368       O823   1.884       .  S
Co368       O830   2.127   1_554  S
Co369       O819   1.975   1_455  S
Co369       O834   2.011   1_454  S
Co369       O370   2.032   1_554  S
O370       Co836   1.999   1_455  S
C371        C388   1.439       .  S
C372        C384   1.432       .  S
C373        C389   1.433       .  S
C374        C386   1.433       .  S
C375        C376   1.208       .  T
C377        C378   1.209       .  T
C379        C380   1.202       .  T
C381        C382   1.206       .  T
C383        C384   1.204       .  T
C385        C386   1.208       .  T
C387        C388   1.208       .  T
C389        C390   1.205       .  T
C391        H397   1.083   1_565  S
C391        C392   1.407       .  A
C391        C396   1.402       .  A
C392        C393   1.400       .  A
C393        C394   1.402       .  A
C394        H399   1.084       .  S
C394        C395   1.410       .  A
C395        C396   1.400       .  A
C396        H400   1.083       .  S
C401        H407   1.083       .  S
C401        C402   1.406       .  A
C401        C406   1.401       .  A
C402        C403   1.400       .  A
C403        H408   1.083       .  S
C403        C404   1.398       .  A
C404        H409   1.084       .  S
C404        C405   1.409       .  A
C405        C406   1.400       .  A
C406        H410   1.083       .  S
C411        H417   1.083       .  S
C411        C412   1.399       .  A
C411        C416   1.400       .  A
C412        C413   1.407       .  A
C413        H418   1.083   1_565  S
C413        C414   1.399       .  A
C414        H419   1.083       .  S
C414        C415   1.399       .  A
C415        C416   1.408       .  A
C416        H420   1.084       .  S
C421        H427   1.084       .  S
C421        C422   1.408       .  A
C421        C426   1.399       .  A
C422        C423   1.399       .  A
C423        H428   1.083       .  S
C423        C424   1.400       .  A
C424        C425   1.405       .  A
C425        C426   1.401       .  A
C426        H430   1.083       .  S
C431        H437   1.083       .  S
C431        C432   1.400       .  A
C431        C436   1.400       .  A
C432        C707   1.481       .  S
C432        C433   1.406       .  A
C433        H438   1.083       .  S
C433        C434   1.399       .  A
C434        H439   1.083       .  S
C434        C435   1.400       .  A
C435        C436   1.409       .  A
C436        H440   1.084       .  S
C441        H447   1.083       .  S
C441        C442   1.401       .  A
C441        C446   1.400       .  A
C442        C443   1.405       .  A
C443        H448   1.083   1_455  S
C443        C444   1.400       .  A
C444        H449   1.083       .  S
C444        C445   1.399       .  A
C445        C446   1.408       .  A
C446        H450   1.084       .  S
C451        H457   1.083       .  S
C451        C452   1.407       .  A
C451        C456   1.402       .  A
C452        C453   1.399       .  A
C453        H458   1.083       .  S
C453        C454   1.400       .  A
C454        H459   1.084       .  S
C454        C455   1.410       .  A
C455        C456   1.400       .  A
C456        H460   1.083       .  S
C461        H467   1.083       .  S
C461        C462   1.400       .  A
C461        C466   1.401       .  A
C462        C463   1.410       .  A
C463        H468   1.084       .  S
C463        C464   1.399       .  A
C464        H469   1.083       .  S
C464        C465   1.399       .  A
C465        C706   1.482   1_455  S
C465        C466   1.406       .  A
C466        H470   1.083       .  S
C471        C687   1.483       .  S
C472        C677   1.483       .  S
C473        C647   1.481       .  S
C473        C895   1.483       .  S
C473        C709   1.343       .  D
C474        C862   1.485       .  S
C474        C637   1.483   1_565  S
C474        C708   1.343       .  D
C475        N493   1.333       .  A
C475        C512   1.476       .  S
C475        C697   1.469       .  S
N476        N493   1.312       .  A
N476        N498   1.319       .  A
N476       Co513   2.028       .  S
C477        N502   1.329       .  A
C477        C515   1.433       .  S
C477        H522   1.081       .  S
H478        C519   1.080       .  S
C479        N503   1.358       .  A
C479        C483   1.476       .  S
C479        H508   1.080       .  S
Co480       N498   2.139       .  S
Co480       N488   2.040       .  S
Co480       N520   2.060       .  S
Co480       N496   2.125       .  S
Co480      Cl524   2.449       .  S
N481        C519   1.354       .  A
N481        N488   1.319       .  A
N481       Co482   2.123       .  S
Co482       N485   2.035       .  S
Co482       N502   2.041       .  S
Co482       N489   2.110       .  S
Co482      Cl524   2.450       .  S
C483        N521   1.335       .  A
C483        C690   1.474       .  S
N484        N491   1.317       .  A
N484        N514   1.316       .  A
N484       Co517   2.053       .  S
N485        N503   1.319       .  A
N485        N521   1.314       .  A
N486        C515   1.358       .  A
N486        N496   1.332       .  A
H487        C512   1.081       .  S
N488        N509   1.314       .  A
N489        N507   1.319       .  A
N489        N494   1.331       .  A
C490        N494   1.355       .  A
C490        C518   1.444       .  S
C490        C622   1.438       .  S
N491        C506   1.353       .  A
N491       Co513   2.108       .  S
C492        N520   1.335       .  A
C492        C495   1.446       .  S
C492        H526   1.082       .  S
C495        N516   1.349       .  A
C495        C618   1.432       .  S
N496        N502   1.321       .  A
N497        C523   1.326       .  A
N497        N499   1.320       .  A
N497       Co513   2.032       .  S
N498        C512   1.358       .  A
N499        N527   1.335       .  A
N499       Co517   2.136       .  S
H500        C523   1.080       .  S
H501        C518   1.082       .  S
N503       Co517   2.142       .  S
N504        N516   1.328       .  A
N504        N520   1.319       .  A
N504       Co513   2.104       .  S
C505        N509   1.336       .  A
C505        C519   1.470       .  S
C505        C650   1.467       .  S
C506        C525   1.468       .  S
C506        H510   1.081       .  S
N507        C518   1.334       .  A
N507       Co517   2.057       .  S
C511        N527   1.362       .  A
C511        C523   1.427       .  S
C511        C620   1.435       .  S
Co513      Cl524   2.453       .  S
N514        C525   1.338       .  A
C515        C625   1.431       .  S
Co517      Cl524   2.441       .  S
C525        C657   1.469       .  S
C528        N546   1.338       .  A
C528        C565   1.469       .  S
C528        C680   1.469       .  S
N529        N546   1.316       .  A
N529        N551   1.317       .  A
N529       Co566   2.052       .  S
C530        N555   1.335       .  A
C530        C568   1.446       .  S
C530        H575   1.082       .  S
H531        C572   1.081       .  S
C532        N556   1.356       .  A
C532        C536   1.472       .  S
C532        H561   1.080       .  S
Co533       N551   2.108       .  S
Co533       N541   2.028       .  S
Co533       N573   2.032       .  S
Co533       N549   2.100       .  S
Co533      Cl577   2.451       .  S
N534        C572   1.357       .  A
N534        N541   1.319       .  A
N534       Co535   2.138       .  S
Co535       N538   2.038       .  S
Co535       N555   2.058       .  S
Co535       N542   2.125       .  S
Co535      Cl577   2.450       .  S
C536        N574   1.335       .  A
C536        C670   1.467       .  S
N537        N544   1.319       .  A
N537        N567   1.314       .  A
N537       Co570   2.035       .  S
N538        N556   1.319       .  A
N538        N574   1.314       .  A
N539        C568   1.348       .  A
N539        N549   1.327       .  A
H540        C565   1.081       .  S
N541        N562   1.313       .  A
N542        N560   1.321       .  A
N542        N547   1.332       .  A
C543        N547   1.359       .  A
C543        C571   1.435       .  S
C543        C617   1.433       .  S
N544        C559   1.358       .  A
N544       Co566   2.143       .  S
C545        N573   1.327       .  A
C545        C548   1.426       .  S
C545        H579   1.080       .  S
C548        N569   1.363       .  A
C548        C612   1.436       .  S
N549        N555   1.319       .  A
N550        C576   1.334       .  A
N550        N552   1.319       .  A
N550       Co566   2.057       .  S
N551        C565   1.353       .  A
N552        N580   1.331       .  A
N552       Co570   2.110       .  S
H553        C576   1.082       .  S
H554        C571   1.082       .  S
N556       Co570   2.127       .  S
N557        N569   1.336       .  A
N557        N573   1.319       .  A
N557       Co566   2.138       .  S
C558        N562   1.333       .  A
C558        C572   1.475       .  S
C558        C640   1.469       .  S
C559        C578   1.477       .  S
C559        H563   1.080       .  S
N560        C571   1.330       .  A
N560       Co570   2.042       .  S
C564        N580   1.355       .  A
C564        C576   1.443       .  S
C564        C610   1.438       .  S
Co566      Cl577   2.440       .  S
N567        C578   1.335       .  A
C568        C615   1.429       .  S
Co570      Cl577   2.452       .  S
C578        C630   1.473       .  S
O581        C589   1.301       .  A
O581       Co836   2.128   1_554  S
O582        C590   1.277       .  A
O582       Co602   2.068   1_554  S
O583        C591   1.270       .  A
O583       Co603   1.985       .  S
O584        C592   1.251       .  A
O585        C591   1.272       .  A
O585       Co837   2.010   1_554  S
O586        C592   1.253       .  A
O586       Co601   1.990   1_544  S
O587        C590   1.243       .  A
O587       Co604   1.926       .  S
O588        C589   1.258       .  A
C589        C616   1.434       .  S
C590        C613   1.434       .  S
C591        C611   1.439       .  S
C592        C614   1.429       .  S
O593        C606   1.270       .  A
O593       Co601   1.985   1_545  S
O594        C607   1.252       .  A
O594       Co837   1.975       .  S
O595        C608   1.301       .  A
O596        C609   1.277       .  A
O596       Co604   2.067   1_556  S
O597        C609   1.244       .  A
O597       Co602   1.927       .  S
O598        C608   1.258       .  A
O598       Co836   1.882       .  S
O599        C606   1.273       .  A
O600        C607   1.255       .  A
O600       Co603   1.994   1_556  S
Co601       O816   2.128   1_556  S
Co601       O833   1.882       .  S
Co602       O820   2.010   1_546  S
Co602       O829   1.975   1_545  S
Co602       O605   2.035       .  S
Co603       O840   2.000   1_554  S
Co604       O605   2.032   1_554  S
O605       Co838   2.000   1_546  S
C606        C623   1.439       .  S
C607        C619   1.432       .  S
C608        C624   1.433       .  S
C609        C621   1.433       .  S
C610        C611   1.208       .  T
C612        C613   1.209       .  T
C614        C615   1.202       .  T
C616        C617   1.206       .  T
C618        C619   1.204       .  T
C620        C621   1.208       .  T
C622        C623   1.208       .  T
C624        C625   1.205       .  T
C626        H632   1.083       .  S
C626        C627   1.407       .  A
C626        C631   1.402       .  A
C627        C709   1.485       .  S
C627        C628   1.400       .  A
C628        H868   1.083       .  S
C628        C629   1.402       .  A
C629        H634   1.084       .  S
C629        C630   1.410       .  A
C630        C631   1.400       .  A
C631        H635   1.083       .  S
H633        C863   1.083       .  S
C636        H642   1.083   1_545  S
C636        C637   1.406       .  A
C636        C641   1.401       .  A
C637        C638   1.400       .  A
C638        H643   1.083       .  S
C638        C639   1.398       .  A
C639        H644   1.084       .  S
C639        C640   1.409       .  A
C640        C641   1.400       .  A
C641        H645   1.083       .  S
C646        H652   1.083       .  S
C646        C647   1.399       .  A
C646        C651   1.400       .  A
C647        C648   1.407       .  A
C648        H653   1.083       .  S
C648        C649   1.399       .  A
C649        H654   1.083       .  S
C649        C650   1.399       .  A
C650        C651   1.408       .  A
C651        H655   1.084       .  S
C656        H662   1.084       .  S
C656        C657   1.408       .  A
C656        C661   1.399       .  A
C657        C658   1.399       .  A
C658        H663   1.083       .  S
C658        C659   1.400       .  A
C659        H899   1.083   1_545  S
C659        C660   1.405       .  A
C660        C708   1.483   1_545  S
C660        C661   1.401       .  A
C661        H665   1.083       .  S
H664        C894   1.083       .  S
C666        H672   1.083       .  S
C666        C667   1.400       .  A
C666        C671   1.400       .  A
C667        C668   1.406       .  A
C668        H673   1.083   1_655  S
C668        C669   1.399       .  A
C669        H674   1.083       .  S
C669        C670   1.400       .  A
C670        C671   1.409       .  A
C671        H675   1.084       .  S
C676        H682   1.083       .  S
C676        C677   1.401       .  A
C676        C681   1.400       .  A
C677        C678   1.405       .  A
C678        H683   1.083       .  S
C678        C679   1.400       .  A
C679        H684   1.083       .  S
C679        C680   1.399       .  A
C680        C681   1.408       .  A
C681        H685   1.084       .  S
C686        H692   1.083   1_655  S
C686        C687   1.407       .  A
C686        C691   1.402       .  A
C687        C688   1.399       .  A
C688        H693   1.083       .  S
C688        C689   1.400       .  A
C689        H694   1.084       .  S
C689        C690   1.410       .  A
C690        C691   1.400       .  A
C691        H695   1.083       .  S
C696        H702   1.083       .  S
C696        C697   1.400       .  A
C696        C701   1.401       .  A
C697        C698   1.410       .  A
C698        H703   1.084       .  S
C698        C699   1.399       .  A
C699        H704   1.083       .  S
C699        C700   1.399       .  A
C700        C701   1.406       .  A
C701        H705   1.083       .  S
C706        C922   1.483       .  S
C707        C912   1.483       .  S
C708        C882   1.481       .  S
C709        C872   1.483       .  S
C710        N728   1.333       .  A
C710        C747   1.476       .  S
C710        C932   1.469       .  S
N711        N728   1.312       .  A
N711        N733   1.319       .  A
N711       Co748   2.028       .  S
C712        N737   1.329       .  A
C712        C750   1.433       .  S
C712        H757   1.081       .  S
H713        C754   1.080       .  S
C714        N738   1.358       .  A
C714        C718   1.476       .  S
C714        H743   1.080       .  S
Co715       N733   2.139       .  S
Co715       N723   2.040       .  S
Co715       N755   2.060       .  S
Co715       N731   2.125       .  S
Co715      Cl759   2.449       .  S
N716        C754   1.354       .  A
N716        N723   1.319       .  A
N716       Co717   2.123       .  S
Co717       N720   2.035       .  S
Co717       N737   2.041       .  S
Co717       N724   2.110       .  S
Co717      Cl759   2.450       .  S
C718        N756   1.335       .  A
C718        C925   1.474       .  S
N719        N726   1.317       .  A
N719        N749   1.316       .  A
N719       Co752   2.053       .  S
N720        N738   1.319       .  A
N720        N756   1.314       .  A
N721        C750   1.358       .  A
N721        N731   1.332       .  A
H722        C747   1.081       .  S
N723        N744   1.314       .  A
N724        N742   1.319       .  A
N724        N729   1.331       .  A
C725        N729   1.355       .  A
C725        C753   1.444       .  S
C725        C857   1.438       .  S
N726        C741   1.353       .  A
N726       Co748   2.108       .  S
C727        N755   1.335       .  A
C727        C730   1.446       .  S
C727        H761   1.082       .  S
C730        N751   1.349       .  A
C730        C853   1.432       .  S
N731        N737   1.321       .  A
N732        C758   1.326       .  A
N732        N734   1.320       .  A
N732       Co748   2.032       .  S
N733        C747   1.358       .  A
N734        N762   1.335       .  A
N734       Co752   2.136       .  S
H735        C758   1.080       .  S
H736        C753   1.082       .  S
N738       Co752   2.142       .  S
N739        N751   1.328       .  A
N739        N755   1.319       .  A
N739       Co748   2.104       .  S
C740        N744   1.336       .  A
C740        C754   1.470       .  S
C740        C885   1.467       .  S
C741        C760   1.468       .  S
C741        H745   1.081       .  S
N742        C753   1.334       .  A
N742       Co752   2.057       .  S
C746        N762   1.362       .  A
C746        C758   1.427       .  S
C746        C855   1.435       .  S
Co748      Cl759   2.453       .  S
N749        C760   1.338       .  A
C750        C860   1.431       .  S
Co752      Cl759   2.441       .  S
C760        C892   1.469       .  S
C763        N781   1.338       .  A
C763        C800   1.469       .  S
C763        C915   1.469       .  S
N764        N781   1.316       .  A
N764        N786   1.317       .  A
N764       Co801   2.052       .  S
C765        N790   1.335       .  A
C765        C803   1.446       .  S
C765        H810   1.082       .  S
H766        C807   1.081       .  S
C767        N791   1.356       .  A
C767        C771   1.472       .  S
C767        H796   1.080       .  S
Co768       N786   2.108       .  S
Co768       N776   2.028       .  S
Co768       N808   2.032       .  S
Co768       N784   2.100       .  S
Co768      Cl812   2.451       .  S
N769        C807   1.357       .  A
N769        N776   1.319       .  A
N769       Co770   2.138       .  S
Co770       N773   2.038       .  S
Co770       N790   2.058       .  S
Co770       N777   2.125       .  S
Co770      Cl812   2.450       .  S
C771        N809   1.335       .  A
C771        C905   1.467       .  S
N772        N779   1.319       .  A
N772        N802   1.314       .  A
N772       Co805   2.035       .  S
N773        N791   1.319       .  A
N773        N809   1.314       .  A
N774        C803   1.348       .  A
N774        N784   1.327       .  A
H775        C800   1.081       .  S
N776        N797   1.313       .  A
N777        N795   1.321       .  A
N777        N782   1.332       .  A
C778        N782   1.359       .  A
C778        C806   1.435       .  S
C778        C852   1.433       .  S
N779        C794   1.358       .  A
N779       Co801   2.143       .  S
C780        N808   1.327       .  A
C780        C783   1.426       .  S
C780        H814   1.080       .  S
C783        N804   1.363       .  A
C783        C847   1.436       .  S
N784        N790   1.319       .  A
N785        C811   1.334       .  A
N785        N787   1.319       .  A
N785       Co801   2.057       .  S
N786        C800   1.353       .  A
N787        N815   1.331       .  A
N787       Co805   2.110       .  S
H788        C811   1.082       .  S
H789        C806   1.082       .  S
N791       Co805   2.127       .  S
N792        N804   1.336       .  A
N792        N808   1.319       .  A
N792       Co801   2.138       .  S
C793        N797   1.333       .  A
C793        C807   1.475       .  S
C793        C875   1.469       .  S
C794        C813   1.477       .  S
C794        H798   1.080       .  S
N795        C806   1.330       .  A
N795       Co805   2.042       .  S
C799        N815   1.355       .  A
C799        C811   1.443       .  S
C799        C845   1.438       .  S
Co801      Cl812   2.440       .  S
N802        C813   1.335       .  A
C803        C850   1.429       .  S
Co805      Cl812   2.452       .  S
C813        C865   1.473       .  S
O816        C824   1.301       .  A
O817        C825   1.277       .  A
O817       Co837   2.068   1_554  S
O818        C826   1.270       .  A
O818       Co838   1.985       .  S
O819        C827   1.251       .  A
O820        C826   1.272       .  A
O821        C827   1.253       .  A
O821       Co836   1.990   1_554  S
O822        C825   1.243       .  A
O822       Co839   1.926       .  S
O823        C824   1.258       .  A
C824        C851   1.434       .  S
C825        C848   1.434       .  S
C826        C846   1.439       .  S
C827        C849   1.429       .  S
O828        C841   1.270       .  A
O828       Co836   1.985       .  S
O829        C842   1.252       .  A
O830        C843   1.301       .  A
O831        C844   1.277       .  A
O831       Co839   2.067   1_556  S
O832        C844   1.244       .  A
O832       Co837   1.927       .  S
O833        C843   1.258       .  A
O834        C841   1.273       .  A
O835        C842   1.255       .  A
O835       Co838   1.994   1_556  S
Co837       O840   2.035       .  S
Co839       O840   2.032   1_554  S
C841        C858   1.439       .  S
C842        C854   1.432       .  S
C843        C859   1.433       .  S
C844        C856   1.433       .  S
C845        C846   1.208       .  T
C847        C848   1.209       .  T
C849        C850   1.202       .  T
C851        C852   1.206       .  T
C853        C854   1.204       .  T
C855        C856   1.208       .  T
C857        C858   1.208       .  T
C859        C860   1.205       .  T
C861        H867   1.083   1_565  S
C861        C862   1.407       .  A
C861        C866   1.402       .  A
C862        C863   1.400       .  A
C863        C864   1.402       .  A
C864        H869   1.084       .  S
C864        C865   1.410       .  A
C865        C866   1.400       .  A
C866        H870   1.083       .  S
C871        H877   1.083       .  S
C871        C872   1.406       .  A
C871        C876   1.401       .  A
C872        C873   1.400       .  A
C873        H878   1.083       .  S
C873        C874   1.398       .  A
C874        H879   1.084       .  S
C874        C875   1.409       .  A
C875        C876   1.400       .  A
C876        H880   1.083       .  S
C881        H887   1.083       .  S
C881        C882   1.399       .  A
C881        C886   1.400       .  A
C882        C883   1.407       .  A
C883        H888   1.083   1_565  S
C883        C884   1.399       .  A
C884        H889   1.083       .  S
C884        C885   1.399       .  A
C885        C886   1.408       .  A
C886        H890   1.084       .  S
C891        H897   1.084       .  S
C891        C892   1.408       .  A
C891        C896   1.399       .  A
C892        C893   1.399       .  A
C893        H898   1.083       .  S
C893        C894   1.400       .  A
C894        C895   1.405       .  A
C895        C896   1.401       .  A
C896        H900   1.083       .  S
C901        H907   1.083       .  S
C901        C902   1.400       .  A
C901        C906   1.400       .  A
C902        C903   1.406       .  A
C903        H908   1.083   1_655  S
C903        C904   1.399       .  A
C904        H909   1.083       .  S
C904        C905   1.400       .  A
C905        C906   1.409       .  A
C906        H910   1.084       .  S
C911        H917   1.083       .  S
C911        C912   1.401       .  A
C911        C916   1.400       .  A
C912        C913   1.405       .  A
C913        H918   1.083       .  S
C913        C914   1.400       .  A
C914        H919   1.083       .  S
C914        C915   1.399       .  A
C915        C916   1.408       .  A
C916        H920   1.084       .  S
C921        H927   1.083   1_655  S
C921        C922   1.407       .  A
C921        C926   1.402       .  A
C922        C923   1.399       .  A
C923        H928   1.083       .  S
C923        C924   1.400       .  A
C924        H929   1.084       .  S
C924        C925   1.410       .  A
C925        C926   1.400       .  A
C926        H930   1.083       .  S
C931        H937   1.083       .  S
C931        C932   1.400       .  A
C931        C936   1.401       .  A
C932        C933   1.410       .  A
C933        H938   1.084       .  S
C933        C934   1.399       .  A
C934        H939   1.083       .  S
C934        C935   1.399       .  A
C935        C936   1.406       .  A
C936        H940   1.083       .  S
