geometry optimzed in LAMMPS
_audit_creation_date              2020-11-30 
_audit_creation_method            'lammps2cif' 
_symmetry_space_group_name_H-M    'P1' 
_symmetry_Int_Tables_number       1 
_symmetry_cell_setting            triclinic 
loop_ 
_symmetry_equiv_pos_as_xyz 
  x,y,z 
_cell_length_a                    44.99655666 
_cell_length_b                    45.10434279480216 
_cell_length_c                    33.397525185781426 
_cell_angle_alpha                 89.94618264622922 
_cell_angle_beta                  90.01489932771612 
_cell_angle_gamma                 121.03249952518915 
loop_ 
_atom_site_label 
_atom_site_type_symbol 
_atom_site_fract_x 
_atom_site_fract_y 
_atom_site_fract_z 
_atom_site_charge 
C1          C  0.33030964  0.16507393  0.71050237     0.46600
H2          H  0.33010251  0.16328539  0.67739071    -0.02400
C3          C  0.33177200  0.17008403  0.78813344     0.46600
H4          H  0.33283861  0.17226678  0.82114924    -0.02400
C5          C  0.34934281  0.20261093  0.72553130    -0.16100
C6          C  0.29422985  0.14831853  0.72954110    -0.15900
C7          C  0.34809545  0.14777755  0.73137862    -0.16300
C8          C  0.34994464  0.20532250  0.76658016    -0.16200
C9          C  0.29499956  0.15054753  0.77071750    -0.15800
C10         C  0.34926220  0.15089018  0.77240375    -0.16100
C11         C  0.16050865  0.33539254  0.28849463     0.46600
H12         H  0.16043060  0.33394449  0.32164394    -0.02400
C13         C  0.16014050  0.33798755  0.21076015     0.46600
H14         H  0.16018815  0.33914434  0.17755349    -0.02400
C15         C  0.19687523  0.35830161  0.27026344    -0.16100
C16         C  0.14603132  0.29996845  0.26822628    -0.15900
C17         C  0.13890141  0.35019206  0.27185800    -0.16300
C18         C  0.19667179  0.35966872  0.22897719    -0.16200
C19         C  0.14557778  0.30127818  0.22716685    -0.15800
C20         C  0.13860508  0.35149029  0.23072053    -0.16100
O21         O  0.48665858  0.43428532  0.95046675    -0.77400
C22         C  0.07449628  0.03901816  0.93111810     0.83700
O23         O  0.02395546  0.48130056  0.08346206    -0.78500
O24         O  0.04346162  0.08632308  0.02187856    -0.80000
O25         O  0.43919128  0.01022932  0.94226301    -0.79800
O26         O  0.43662949  0.43286789  0.94646615    -0.78400
Zn27       Zn  0.01938657  0.47711058  0.98154060     1.55700
O28         O  0.48979983  0.05998385  0.94397705    -0.79800
Cd29       Cd  0.44805733  0.47737079  0.97796842     1.59700
Cd30       Cd  0.49784487  0.00394354  0.05906993     1.59600
O31         O  0.41409273  0.46214178  0.02588613    -0.79800
O32         O  0.49723336  0.00198164  0.99878864    -1.90300
Cd33       Cd  0.02239540  0.05006836  0.97679707     1.59900
O34         O  0.44608842  0.47752683  0.08154003    -0.79700
O35         O  0.06247197  0.05828569  0.93976418    -0.78400
C36         C  0.03853361  0.46680444  0.06632477     0.84100
C37         C  0.45531696  0.41988342  0.93859820     0.83800
O38         O  0.06084507  0.00838777  0.94498006    -0.77300
C39         C  0.45836966  0.04203706  0.93250942     0.84600
O40         O  0.03785544  0.46357714  0.02838980    -0.77400
C41         C  0.41660797  0.46324426  0.06402241     0.84700
C42         C  0.04123457  0.08433272  0.05988405     0.85100
O43         O  0.02398609  0.05524941  0.07787279    -0.79900
O44         O  0.00433669  0.06813411  0.44664779    -0.77400
C45         C  0.41581526  0.46144810  0.43704787     0.83700
O46         O  0.46901218  0.02512193  0.58157008    -0.78500
O47         O  0.45752882  0.42070709  0.52563979    -0.80000
O48         O  0.05729760  0.49666537  0.44913759    -0.79800
O49         O  0.05468509  0.06992580  0.44615598    -0.78400
Zn50       Zn  0.47238087  0.02601851  0.48055467     1.55700
O51         O  0.00642734  0.44748448  0.44401680    -0.79800
Cd52       Cd  0.04511095  0.02827216  0.48179914     1.59700
Cd53       Cd  0.49480900  0.00123397  0.56069018     1.59600
O54         O  0.07796867  0.04734121  0.53014307    -0.79800
O55         O  0.49601220  0.00287812  0.50053486    -1.90300
Cd56       Cd  0.47299095  0.45534658  0.47898190     1.59900
O57         O  0.04467997  0.02823837  0.58449398    -0.79700
O58         O  0.42895096  0.44326816  0.44662394    -0.78400
C59         C  0.45579889  0.04082621  0.56407818     0.84100
C60         C  0.03595717  0.08230946  0.43577112     0.83800
O61         O  0.43035027  0.49325325  0.44704660    -0.77300
C62         C  0.03882104  0.46568210  0.43647044     0.84600
O63         O  0.45569452  0.04295080  0.52608193    -0.77400
C64         C  0.07449563  0.04525143  0.56809600     0.84700
C65         C  0.45736570  0.42252424  0.56370403     0.85100
O66         O  0.46955223  0.45151438  0.58156733    -0.79900
C67         C  0.10115897  0.17808569  0.09256335    -0.13200
C68         C  0.08991774  0.17681959  0.13188130     0.17100
C69         C  0.06286920  0.14542218  0.14737485     0.03400
C70         C  0.04781921  0.11564735  0.12365581    -0.11700
C71         C  0.05876161  0.11660236  0.08401479    -0.02800
C72         C  0.08585608  0.14845821  0.06846164     0.02700
C73         C  0.10530292  0.20898264  0.15552689     0.09500
N74         N  0.04957116  0.14366633  0.18666329     0.65900
H75         H  0.02682943  0.09177427  0.13619488     0.18800
N76         N  0.09855535  0.15124354  0.02858738     0.76400
H77         H  0.12179768  0.20237906  0.08038135     0.10300
C78         C  0.13442117  0.21941584  0.18008039     0.04000
C79         C  0.14769498  0.24982965  0.20285160    -0.04700
C80         C  0.13258885  0.27043398  0.20069255    -0.23100
C81         C  0.10428119  0.26039648  0.17456829     0.13200
C82         C  0.09072961  0.22968847  0.15270388    -0.12300
N83         N  0.15098818  0.19962836  0.18141174     0.64900
H84         H  0.16975658  0.25739493  0.22223308     0.12800
N85         N  0.08710587  0.27946454  0.17180505     0.61600
H86         H  0.06849021  0.22182685  0.13348802     0.08900
O87         O  0.12562693  0.15004265  0.02281911    -0.39900
O88         O  0.08772080  0.16258433  0.00118870    -0.39100
O89         O  0.52270547  0.14551695  0.19085167    -0.39100
O90         O  0.05944278  0.13241221  0.21515287    -0.36800
O91         O  0.05558388  0.26437556  0.18170969    -0.37700
O92         O  0.09871735  0.30464321  0.14780127    -0.33800
O93         O  0.17271069  0.20404976  0.15466425    -0.35200
O94         O  0.13919358  0.17359711  0.20411869    -0.39500
C95         C  0.34992376  0.42287369  0.14876341    -0.13200
C96         C  0.31992461  0.41785614  0.12965764     0.17100
C97         C  0.32195431  0.42803415  0.08940332     0.03400
C98         C  0.35355927  0.44244130  0.06890883    -0.11700
C99         C  0.38387393  0.44766211  0.08781785    -0.02800
C100        C  0.38174320  0.43769355  0.12843945     0.02700
C101        C  0.28737832  0.40353148  0.15308574     0.09500
N102        N  0.29270390  0.42566318  0.06946676     0.65900
H103        H  0.35466404  0.94734738  0.03850257     0.18800
N104        N  0.41129956  0.44182893  0.14944994     0.76400
H105        H  0.34862951  0.41530759  0.17987105     0.10300
C106        C  0.25969660  0.36929070  0.14782427     0.04000
C107        C  0.23045599  0.35613304  0.17252794    -0.04700
C108        C  0.22794158  0.37644436  0.20261838    -0.23100
C109        C  0.25526189  0.41120660  0.20700865     0.13200
C110        C  0.28480215  0.42415125  0.18263083    -0.12300
N111        N  0.26148390  0.34698831  0.11884529     0.64900
H112        H  0.20992500  0.32934423  0.16888433     0.12800
N113        N  0.25315926  0.43405655  0.23494531     0.61600
H114        H  0.30584322  0.45068165  0.18651769     0.08900
O115        O  0.41548488  0.41633730  0.15268719    -0.39900
O116        O  0.42790879  0.46750790  0.17231942    -0.39100
O117        O  0.28677539  0.94597065  0.07146333    -0.39100
O118        O  0.27686195  0.40244538  0.04345009    -0.36800
O119        O  0.23460183  0.44668904  0.22649103    -0.37700
O120        O  0.27625624  0.44849110  0.26150052    -0.33800
O121        O  0.27399439  0.32868379  0.12898083    -0.35200
O122        O  0.24275160  0.33888632  0.08794121    -0.39500
C123        C  0.07959537  0.38007467  0.18400839    -0.13200
C124        C  0.10284917  0.40599998  0.15803356     0.17100
C125        C  0.13758779  0.41444348  0.15686632     0.03400
C126        C  0.14816512  0.39602808  0.18069869    -0.11700
C127        C  0.12490582  0.36971665  0.20667775    -0.02800
C128        C  0.09015349  0.36208467  0.20862343     0.02700
C129        C  0.08993901  0.42407765  0.13322774     0.09500
N130        N  0.16266160  0.44245891  0.13289498     0.65900
H131        H  0.17508346  0.40286956  0.17945083     0.18800
N132        N  0.06499568  0.33653326  0.23503769     0.76400
H133        H  0.05284883  0.37381534  0.18530591     0.10300
C134        C  0.07917939  0.41386038  0.09352108     0.04400
C135        C  0.06290794  0.42838660  0.07241533    -0.04700
C136        C  0.05658272  0.45288501  0.09028422    -0.23100
C137        C  0.06791228  0.46337052  0.13013673     0.13200
C138        C  0.08440895  0.44889817  0.15109296    -0.12300
N139        N  0.08300469  0.38748330  0.07494654     0.64900
H140        H  0.05436588  0.41964583  0.04200232     0.12800
N141        N  0.06316148  0.48874142  0.14978526     0.61600
H142        H  0.09232979  0.45655573  0.18193246     0.08900
O143        O  0.05514681  0.34681712  0.26444749    -0.39900
O144        O  0.04399694  0.30705362  0.22101149    -0.39100
O145        O  0.18191816  0.47156732  0.14900762    -0.39100
O146        O  0.17108418  0.43618951  0.09933721    -0.36800
O147        O  0.03730412  0.47901363  0.17244164    -0.37700
O148        O  0.08829848  0.51950485  0.15201980    -0.33800
O149        O  0.05776107  0.35669794  0.07490589    -0.35200
O150        O  0.10813936  0.39593930  0.05152842    -0.39500
C151        C  0.13450984  0.22888425  0.33962571    -0.13200
C152        C  0.09915446  0.20430248  0.33432432     0.17100
C153        C  0.07955784  0.21169990  0.30756266     0.03400
C154        C  0.09549583  0.24277044  0.28615008    -0.11700
C155        C  0.13073903  0.26726234  0.29135416    -0.02800
C156        C  0.15032339  0.26041067  0.31876083     0.02700
C157        C  0.08250614  0.17243889  0.35922227     0.09500
N158        N  0.04331750  0.18803354  0.30208841     0.65900
H159        H  0.08006054  0.24807125  0.26565875     0.18800
N160        N  0.18615418  0.28508123  0.32571970     0.76400
H161        H  0.14970553  0.22394999  0.36089650     0.10300
C162        C  0.09356049  0.14833785  0.35798580     0.04000
C163        C  0.07816636  0.11939418  0.38325685    -0.04700
C164        C  0.05153680  0.11362248  0.40992932    -0.23100
C165        C  0.04064952  0.13796074  0.41127967     0.13200
C166        C  0.05617676  0.16695362  0.38606536    -0.12300
N167        N  0.11973152  0.15240420  0.33049232     0.64900
H168        H  0.08681653  0.10095233  0.38149838     0.12800
N169        N  0.01537418  0.13479568  0.43959798     0.61600
H170        H  0.04816969  0.18588173  0.38820790     0.08900
O171        O  0.19473908  0.30436183  0.35613784    -0.39900
O172        O  0.20896587  0.28210168  0.30732334    -0.39100
O173        O  0.02180320  0.19504563  0.31671746    -0.39100
O174        O  0.03335037  0.16460434  0.27600819    -0.36800
O175        O  0.02517811  0.14814061  0.47384723    -0.37700
O176        O  0.98541901  0.12630010  0.42758492    -0.33800
O177        O  0.11100708  0.13943317  0.29594316    -0.35200
O178        O  0.14969669  0.16181480  0.34334053    -0.39500
C179        C  0.26342960  0.40826416  0.35196628    -0.13200
C180        C  0.29037035  0.40284954  0.34116883     0.17100
C181        C  0.28589748  0.38179748  0.30777664     0.03400
C182        C  0.25507677  0.36697784  0.28575436    -0.11700
C183        C  0.22869026  0.37356856  0.29546098    -0.02800
C184        C  0.23289118  0.39413461  0.32935418     0.02700
C185        C  0.32233742  0.41812912  0.36590192     0.09500
N186        N  0.31294663  0.37628427  0.29492775     0.65900
H187        H  0.25196715  0.35051400  0.26049800     0.18800
N188        N  0.20747775  0.40273292  0.33990313     0.76400
H189        H  0.26616771  0.42377085  0.37807590     0.10300
C190        C  0.34291741  0.45409071  0.37257122     0.04000
C191        C  0.37301788  0.46744780  0.39578087    -0.04700
C192        C  0.38306513  0.44565007  0.41346916    -0.23100
C193        C  0.36147208  0.40941806  0.40816584     0.13200
C194        C  0.33173708  0.39618360  0.38423672    -0.12300
N195        N  0.33394550  0.47750632  0.35550900     0.64900
H196        H  0.38964730  0.99533238  0.39978197     0.12800
N197        N  0.36824483  0.38554773  0.42832343     0.61600
H198        H  0.31534099  0.36834338  0.38068357     0.08900
O199        O  0.21118685  0.43083991  0.32735309    -0.39900
O200        O  0.18800863  0.38801791  0.36961961    -0.39100
O201        O  0.30986564  0.34714432  0.30042446    -0.39100
O202        O  0.33549877  0.39733993  0.27069456    -0.36800
O203        O  0.35445918  0.37370358  0.46200132    -0.37700
O204        O  0.38112080  0.37077065  0.40908325    -0.33800
O205        O  0.32225223  0.99114926  0.37635980    -0.35200
O206        O  0.34766105  0.49235277  0.32285645    -0.39500
C207        C  0.08714332  0.36631312  0.34964244    -0.13200
C208        C  0.09870133  0.40132862  0.34245205     0.17100
C209        C  0.12524864  0.41979727  0.31419068     0.03400
C210        C  0.13840210  0.40278293  0.29221604    -0.11700
C211        C  0.12587592  0.36750366  0.29807455    -0.02800
C212        C  0.10083438  0.34937498  0.32803252     0.02700
C213        C  0.08345219  0.41844133  0.36529689     0.09500
N214        N  0.13855568  0.45567036  0.30676317     0.65900
H215        H  0.15843780  0.41722806  0.27007213     0.18800
N216        N  0.08721016  0.31329588  0.33463714     0.76400
H217        H  0.06713288  0.35199529  0.37184775     0.10300
C218        C  0.04815724  0.40790072  0.36152564     0.04000
C219        C  0.03426528  0.42360781  0.38492577    -0.04700
C220        C  0.05500428  0.45012830  0.41211800    -0.23100
C221        C  0.09050930  0.46078225  0.41558547     0.13200
C222        C  0.10429514  0.44493267  0.39220971    -0.12300
N223        N  0.02634905  0.38197620  0.33322910     0.64900
H224        H  0.00706617  0.41523093  0.38136201     0.12800
N225        N  0.11255915  0.98507837  0.44696058     0.61600
H226        H  0.13135723  0.45278285  0.39585891     0.08900
O227        O  0.09844571  0.30374315  0.36346455    -0.39900
O228        O  0.05975141  0.29134950  0.31702030    -0.39100
O229        O  0.16721438  0.47784125  0.32198365    -0.39100
O230        O  0.12625940  0.46441791  0.27826704    -0.36800
O231        O  0.11384346  0.97422618  0.48137874    -0.37700
O232        O  0.13545659  0.01536823  0.43675993    -0.33800
O233        O  0.50426711  0.35202701  0.34538119    -0.35200
O234        O  0.02418727  0.39082266  0.29799654    -0.39500
C235        C  0.36917309  0.10526155  0.85487875    -0.13200
C236        C  0.40259872  0.11323755  0.84406831     0.17100
C237        C  0.41959057  0.13629074  0.81205856     0.03400
C238        C  0.40241551  0.14961962  0.79044163    -0.11700
C239        C  0.36803524  0.13969781  0.79937341    -0.02800
C240        C  0.35183733  0.11837353  0.83305233     0.02700
C241        C  0.41820394  0.09561665  0.86522429     0.09500
N242        N  0.45313539  0.14427133  0.79908275     0.65900
H243        H  0.41565054  0.16686655  0.76543723     0.18800
N244        N  0.31689330  0.10747301  0.84358409     0.76400
H245        H  0.35595296  0.08770656  0.87966442     0.10300
C246        C  0.44632448  0.11352438  0.89164879     0.04000
C247        C  0.45924679  0.09557574  0.91241348    -0.04700
C248        C  0.44416603  0.05957835  0.90822962    -0.23100
C249        C  0.41607958  0.04168899  0.88143635     0.13200
C250        C  0.40351589  0.05983275  0.86014011    -0.12300
N251        N  0.46057145  0.14945741  0.89979651     0.64900
H252        H  0.48051172  0.10985021  0.93315328     0.12800
N253        N  0.40044003  0.00534499  0.87488176     0.61600
H254        H  0.38190790  0.04584896  0.83973931     0.08900
O255        O  0.31124524  0.12075040  0.87369029    -0.39900
O256        O  0.29251573  0.07941534  0.82962475    -0.39100
O257        O  0.45531111  0.12506620  0.77334248    -0.39100
O258        O  0.47878804  0.17434053  0.80454187    -0.36800
O259        O  0.37659061  0.48387299  0.88722338    -0.37700
O260        O  0.41457397  0.49637358  0.83984395    -0.33800
O261        O  0.44633600  0.15825421  0.92592254    -0.35200
O262        O  0.49115865  0.17096795  0.88886067    -0.39500
C263        C  0.37908264  0.29542383  0.80760794    -0.13200
C264        C  0.40216821  0.29838440  0.83768536     0.17100
C265        C  0.40890110  0.27134832  0.84296149     0.03400
C266        C  0.39190511  0.24178300  0.81889066    -0.11700
C267        C  0.36799873  0.23829673  0.78956971    -0.02800
C268        C  0.36181847  0.26577237  0.78368909     0.02700
C269        C  0.41655086  0.32875593  0.86476976     0.09500
N270        N  0.43131801  0.27250151  0.87399103     0.65900
H271        H  0.39707602  0.22102492  0.82361351     0.18800
N272        N  0.33733195  0.26379927  0.75489502     0.76400
H273        H  0.37361566  0.31603504  0.80346112     0.10300
C274        C  0.45226950  0.35364033  0.86635644     0.04000
C275        C  0.46420632  0.38247764  0.89141455    -0.04700
C276        C  0.44111605  0.38788122  0.91417399    -0.23100
C277        C  0.40527537  0.36302069  0.91221992     0.13200
C278        C  0.39346405  0.33372951  0.88794718    -0.12300
N279        N  0.47642806  0.35147338  0.84058576     0.64900
H280        H  0.49175925  0.40161146  0.89168652     0.12800
N281        N  0.38053829  0.36678075  0.93498289     0.61600
H282        H  0.36586887  0.31478885  0.88683457     0.08900
O283        O  0.34731054  0.28708862  0.72852011    -0.39900
O284        O  0.30537372  0.24545762  0.76244157    -0.39100
O285        O  0.41884989  0.26145771  0.90836230    -0.39100
O286        O  0.45968502  0.27499930  0.86459109    -0.36800
O287        O  0.36328278  0.37814169  0.91811004    -0.37700
O288        O  0.37073432  0.35197293  0.96854298    -0.33800
O289        O  0.97854599  0.36064910  0.80449112    -0.35200
O290        O  0.50095875  0.34934299  0.85572605    -0.39500
C291        C  0.22638839  0.13118834  0.84978057    -0.13200
C292        C  0.20146291  0.09693455  0.84024496     0.17100
C293        C  0.20798000  0.08011664  0.80901703     0.03400
C294        C  0.23915574  0.09780458  0.78791582    -0.11700
C295        C  0.26363482  0.13256698  0.79630640    -0.02800
C296        C  0.25735817  0.14918662  0.82818396     0.02700
C297        C  0.16808735  0.08029416  0.86175759     0.09500
N298        N  0.18228205  0.04612197  0.79635197     0.65900
H299        H  0.24383613  0.08451507  0.76391098     0.18800
N300        N  0.28071880  0.18480941  0.83745102     0.76400
H301        H  0.22134282  0.14434330  0.87363507     0.10300
C302        C  0.15849000  0.05270253  0.88853564     0.04000
C303        C  0.12729165  0.03888133  0.90969929    -0.04700
C304        C  0.10574720  0.05276229  0.90552340    -0.23100
C305        C  0.11550796  0.08042909  0.87843432     0.13200
C306        C  0.14637297  0.09373025  0.85675321    -0.12300
N307        N  0.18121504  0.04009874  0.89671098     0.64900
H308        H  0.12070011  0.01815674  0.93085953     0.12800
N309        N  0.09433847  0.09513577  0.87216506     0.61600
H310        H  0.15368687  0.11500904  0.83616660     0.08900
O311        O  0.30240851  0.19236498  0.86532034    -0.39900
O312        O  0.27220078  0.20648637  0.82790785    -0.39100
O313        O  0.15994085  0.04274512  0.77100476    -0.39100
O314        O  0.18765168  0.02154882  0.80146676    -0.36800
O315        O  0.10273477  0.62123163  0.88995205    -0.37700
O316        O  0.07469682  0.58361140  0.84282185    -0.33800
O317        O  0.20478131  0.05531826  0.92258243    -0.35200
O318        O  0.17268449  0.00995174  0.88581446    -0.39500
C319        C  0.37426839  0.08491657  0.69222503    -0.13200
C320        C  0.39973063  0.10569608  0.66415643     0.17100
C321        C  0.40748610  0.13995471  0.65801093     0.03400
C322        C  0.38977249  0.15260071  0.67975677    -0.11700
C323        C  0.36456463  0.13193659  0.70812826    -0.02800
C324        C  0.35676702  0.09759303  0.71434754     0.02700
C325        C  0.41523373  0.09004081  0.63891649     0.09500
N326        N  0.43372547  0.16243937  0.63033855     0.65900
H327        H  0.39632310  0.17913913  0.67502811     0.18800
N328        N  0.33037233  0.07466861  0.74164480     0.76400
H329        H  0.36693288  0.05807870  0.69604169     0.10300
C330        C  0.43220733  0.07394584  0.65563122     0.04000
C331        C  0.44484416  0.05804900  0.63069008    -0.04700
C332        C  0.44093239  0.05745754  0.58891140    -0.23100
C333        C  0.42366013  0.07342897  0.57222933     0.13200
C334        C  0.41100497  0.08932001  0.59728035    -0.12300
N335        N  0.43814763  0.07456235  0.69770768     0.64900
H336        H  0.45815132  0.04627890  0.64445082     0.12800
N337        N  0.41810312  0.07333825  0.53010271     0.61600
H338        H  0.39706249  0.10063304  0.58402788     0.08900
O339        O  0.33901171  0.06384282  0.77169097    -0.39900
O340        O  0.29961729  0.05696107  0.72917351    -0.39100
O341        O  0.42495461  0.16927757  0.59730872    -0.39100
O342        O  0.46447077  0.18139102  0.64254414    -0.36800
O343        O  0.38970613  0.05021213  0.51527955    -0.37700
O344        O  0.43777986  0.09999631  0.50976201    -0.33800
O345        O  0.46855551  0.09404437  0.71063072    -0.35200
O346        O  0.41699682  0.04905441  0.71874073    -0.39500
C347        C  0.36660656  0.26728745  0.64236194    -0.13200
C348        C  0.40125706  0.29268778  0.64999868     0.17100
C349        C  0.41927584  0.28718112  0.68083726     0.03400
C350        C  0.40232327  0.25706188  0.70397658    -0.11700
C351        C  0.36717932  0.23249113  0.69773663    -0.02800
C352        C  0.34940341  0.23737141  0.66595129     0.02700
C353        C  0.41702169  0.32596374  0.62797249     0.09500
N354        N  0.45470303  0.31213971  0.68929819     0.65900
H355        H  0.41652886  0.25321969  0.72763453     0.18800
N356        N  0.31309562  0.21422416  0.65986358     0.76400
H357        H  0.35222395  0.27159364  0.61933471     0.10300
C358        C  0.41991082  0.32726390  0.58597361     0.04000
C359        C  0.43290892  0.35882390  0.56601677    -0.04700
C360        C  0.44301860  0.38970958  0.58695840    -0.23100
C361        C  0.43955499  0.38817768  0.62918509     0.13200
C362        C  0.42678641  0.35650889  0.64912403    -0.12300
N363        N  0.41007786  0.29678220  0.56314201     0.64900
H364        H  0.43519078  0.35896253  0.53365007     0.12800
N365        N  0.44767619  0.41809250  0.65224930     0.61600
H366        H  0.42352648  0.35559640  0.68141126     0.08900
O367        O  0.30305356  0.19358170  0.63063025    -0.39900
O368        O  0.29189018  0.22069844  0.67648627    -0.39100
O369        O  0.46196613  0.33177915  0.71919952    -0.39100
O370        O  0.47832951  0.30927958  0.67282495    -0.36800
O371        O  0.42435608  0.42510365  0.65887848    -0.37700
O372        O  0.47530928  0.43296810  0.67246194    -0.33800
O373        O  0.38289494  0.28370135  0.54213615    -0.35200
O374        O  0.43191134  0.28764137  0.55725333    -0.39500
C375        C  0.22343646  0.10082454  0.65148646    -0.13200
C376        C  0.20182105  0.11390837  0.65936225     0.17100
C377        C  0.21046049  0.13803608  0.69047684     0.03400
C378        C  0.24063606  0.14884767  0.71281068    -0.11700
C379        C  0.26231788  0.13563923  0.70509206    -0.02800
C380        C  0.25341042  0.11127281  0.67401390     0.02700
C381        C  0.16901787  0.09955694  0.63683617     0.09500
N382        N  0.18899802  0.15190208  0.69951951     0.65900
H383        H  0.24732353  0.16794232  0.73631729     0.18800
N384        N  0.27219572  0.09411353  0.66748942     0.76400
H385        H  0.21625777  0.08124661  0.62844334     0.10300
C386        C  0.16909183  0.10390918  0.59513526     0.04000
C387        C  0.13804376  0.08636549  0.57378610    -0.04700
C388        C  0.10640155  0.06372467  0.59301610    -0.23100
C389        C  0.10646733  0.05946053  0.63505903     0.13200
C390        C  0.13763301  0.07760784  0.65647688    -0.12300
N391        N  0.20062453  0.12578158  0.57396135     0.64900
H392        H  0.13897937  0.09038233  0.54165700     0.12800
N393        N  0.07570958  0.03549895  0.65623903     0.61600
H394        H  0.13757017  0.07333049  0.68849794     0.08900
O395        O  0.29562862  0.10571477  0.64112519    -0.39900
O396        O  0.25788559  0.06266526  0.67726628    -0.39100
O397        O  0.17017050  0.14163105  0.73041974    -0.39100
O398        O  0.19463702  0.17921937  0.68224150    -0.36800
O399        O  0.06622237  0.50478872  0.66403527    -0.37700
O400        O  0.05765148  0.54740106  0.67515248    -0.33800
O401        O  0.21477454  0.11239310  0.55443928    -0.35200
O402        O  0.20985404  0.15696010  0.56766672    -0.39500
C403        C  0.32892729  0.66419135  0.71140217     0.46600
H404        H  0.32829334  0.66244650  0.67826837    -0.02400
C405        C  0.33142200  0.66920008  0.78907478     0.46600
H406        H  0.33291407  0.67133502  0.82210584    -0.02400
C407        C  0.34700857  0.70167686  0.72644543    -0.16100
C408        C  0.29310276  0.64627034  0.73121669    -0.15900
C409        C  0.34812578  0.64804941  0.73150257    -0.16300
C410        C  0.34814065  0.70444357  0.76749858    -0.16200
C411        C  0.29443132  0.64855914  0.77238863    -0.15800
C412        C  0.34976295  0.65105169  0.77252796    -0.16100
C413        C  0.16131519  0.83632965  0.28813411     0.46600
H414        H  0.16146532  0.83516488  0.32128767    -0.02400
C415        C  0.16053741  0.83828734  0.21038956     0.46600
H416        H  0.16073638  0.83935032  0.17720550    -0.02400
C417        C  0.19757810  0.85884401  0.26964822    -0.16100
C418        C  0.14644669  0.80068705  0.26818926    -0.15900
C419        C  0.13985672  0.85127002  0.27145205    -0.16300
C420        C  0.19714480  0.85981329  0.22840752    -0.16200
C421        C  0.14560832  0.80160532  0.22705614    -0.15800
C422        C  0.13927183  0.85214560  0.23029751    -0.16100
O423        O  0.48687411  0.93521195  0.94862037    -0.77400
C424        C  0.07411697  0.53754256  0.93191676     0.83700
O425        O  0.02487918  0.98178103  0.08261438    -0.78500
O426        O  0.04341658  0.58593535  0.02201740    -0.80000
O427        O  0.43974189  0.50974062  0.94040845    -0.79800
O428        O  0.43674166  0.93371645  0.94623881    -0.78400
Zn429      Zn  0.01989289  0.97780795  0.98040753     1.55700
O430        O  0.49032883  0.55950359  0.94326117    -0.79800
Cd431      Cd  0.44836169  0.97783246  0.97849874     1.59700
Cd432      Cd  0.49697803  0.50342299  0.05929181     1.59600
O433        O  0.41488749  0.96191479  0.02675185    -0.79800
O434        O  0.49674211  0.50145615  0.99905988    -1.90300
Cd435      Cd  0.02244874  0.54952818  0.97698361     1.59900
O436        O  0.44720330  0.97777366  0.08210252    -0.79700
O437        O  0.06262374  0.55728931  0.94039920    -0.78400
C438        C  0.03867267  0.96664360  0.06520857     0.84100
C439        C  0.45533312  0.92083825  0.93739473     0.83800
O440        O  0.05999157  0.50694078  0.94586382    -0.77300
C441        C  0.45917075  0.54158264  0.93086052     0.84600
O442        O  0.03775727  0.96334209  0.02724449    -0.77400
C443        C  0.41760680  0.96304265  0.06484392     0.84700
C444        C  0.04066609  0.58392689  0.05999420     0.85100
O445        O  0.02306992  0.55484777  0.07793778    -0.79900
O446        O  0.00519796  0.56874822  0.44569929    -0.77400
C447        C  0.41606668  0.96099514  0.43734194     0.83700
O448        O  0.46876419  0.52660101  0.57993886    -0.78500
O449        O  0.45712144  0.91970096  0.52596639    -0.80000
O450        O  0.05765679  0.99672024  0.44979390    -0.79800
O451        O  0.05571217  0.57086271  0.44714703    -0.78400
Zn452      Zn  0.47262361  0.52681240  0.47927311     1.55700
O453        O  0.00702903  0.94724568  0.44447413    -0.79800
Cd454      Cd  0.04521884  0.52838890  0.48169057     1.59700
Cd455      Cd  0.49422498  0.50212299  0.55994434     1.59600
O456        O  0.07772528  0.54628810  0.53041974    -0.79800
O457        O  0.49596614  0.50357331  0.49987473    -1.90300
Cd458      Cd  0.47315425  0.95466927  0.47937588     1.59900
O459        O  0.04382699  0.52857288  0.58430744    -0.79700
O460        O  0.42936992  0.94285888  0.44644968    -0.78400
C461        C  0.45605832  0.54266113  0.56214972     0.84100
C462        C  0.03714651  0.58326564  0.43613092     0.83800
O463        O  0.43024371  0.99256691  0.44816617    -0.77300
C464        C  0.03943486  0.96575555  0.43701909     0.84600
O465        O  0.45607633  0.54459454  0.52413603    -0.77400
C466        C  0.07384995  0.54454704  0.56831909     0.84700
C467        C  0.45726437  0.92147220  0.56407176     0.85100
O468        O  0.47014960  0.95050132  0.58203876    -0.79900
C469        C  0.10142629  0.67717197  0.09395810    -0.13200
C470        C  0.08797365  0.67650929  0.13191989     0.17100
C471        C  0.05917784  0.64563465  0.14599711     0.03400
C472        C  0.04467921  0.61579350  0.12241021    -0.11700
C473        C  0.05779604  0.61619211  0.08413366    -0.02800
C474        C  0.08657586  0.64750710  0.06986355     0.02700
C475        C  0.10351719  0.70860981  0.15584340     0.09500
N476        N  0.04397317  0.64432645  0.18392834     0.65900
H477        H  0.02239064  0.59229792  0.13388916     0.18800
N478        N  0.10148359  0.64961458  0.03142144     0.76400
H479        H  0.12351632  0.70102250  0.08283464     0.10300
C480        C  0.13153055  0.71785430  0.18185209     0.04000
C481        C  0.14540111  0.74848156  0.20433242    -0.04700
C482        C  0.13193161  0.77046179  0.20074000    -0.23100
C483        C  0.10464331  0.76152299  0.17324322     0.13200
C484        C  0.09054577  0.73062211  0.15155786    -0.12300
N485        N  0.14632850  0.69653244  0.18512577     0.64900
H486        H  0.16666334  0.75511406  0.22468274     0.12800
N487        N  0.08930414  0.78219196  0.16828624     0.61600
H488        H  0.06923626  0.72372917  0.13115271     0.08900
O489        O  0.12863431  0.64806688  0.02895728    -0.39900
O490        O  0.09254680  0.66085481  0.00201119    -0.39100
O491        O  0.51867426  0.64902412  0.18558001    -0.39100
O492        O  0.04983857  0.63029459  0.21311363    -0.36800
O493        O  0.05748636  0.76857168  0.17615310    -0.37700
O494        O  0.10292499  0.80711241  0.14387938    -0.33800
O495        O  0.16950501  0.70056696  0.16067257    -0.35200
O496        O  0.13185625  0.66986019  0.20691258    -0.39500
C497        C  0.35138426  0.92263661  0.15010694    -0.13200
C498        C  0.32102458  0.91636692  0.13073692     0.17100
C499        C  0.32261536  0.92546252  0.09015955     0.03400
C500        C  0.35418921  0.94024176  0.06961660    -0.11700
C501        C  0.38493105  0.94692822  0.08878832    -0.02800
C502        C  0.38320834  0.93784514  0.12969906     0.02700
C503        C  0.28848123  0.90212907  0.15408462     0.09500
N504        N  0.29286182  0.92163979  0.06989492     0.65900
H505        H  0.35442706  0.45034476  0.03803206     0.18800
N506        N  0.41320320  0.94338812  0.15096373     0.76400
H507        H  0.35038965  0.91587536  0.18145299     0.10300
C508        C  0.26126243  0.86752130  0.14993618     0.04000
C509        C  0.23160627  0.85484035  0.17386211    -0.04700
C510        C  0.22839197  0.87600195  0.20215374    -0.23100
C511        C  0.25530083  0.91100052  0.20552094     0.13200
C512        C  0.28516298  0.92353555  0.18183641    -0.12300
N513        N  0.26395575  0.84446397  0.12295116     0.64900
H514        H  0.21135079  0.82786002  0.17114982     0.12800
N515        N  0.25242410  0.93443895  0.23172792     0.61600
H516        H  0.30582163  0.95032470  0.18480039     0.08900
O517        O  0.41803839  0.91843902  0.15583987    -0.39900
O518        O  0.42971443  0.97004045  0.17244468    -0.39100
O519        O  0.28899350  0.45154947  0.06969995    -0.39100
O520        O  0.27865412  0.89903061  0.04288181    -0.36800
O521        O  0.23448461  0.94718560  0.22086058    -0.37700
O522        O  0.27456828  0.94920620  0.25917395    -0.33800
O523        O  0.27496600  0.82558424  0.13590164    -0.35200
O524        O  0.24725121  0.83653158  0.09048672    -0.39500
C525        C  0.07835604  0.87840256  0.18382768    -0.13200
C526        C  0.10076004  0.90354353  0.15655850     0.17100
C527        C  0.13553573  0.91223935  0.15443220     0.03400
C528        C  0.14701566  0.89478962  0.17857128    -0.11700
C529        C  0.12468205  0.86937492  0.20598220    -0.02800
C530        C  0.08990332  0.86154965  0.20895979     0.02700
C531        C  0.08729448  0.92111305  0.13179950     0.09500
N532        N  0.15968703  0.93940034  0.12883445     0.65900
H533        H  0.17394761  0.90176876  0.17649544     0.18800
N534        N  0.06595573  0.83741415  0.23748350     0.76400
H535        H  0.05162760  0.87210078  0.18596758     0.10300
C536        C  0.07150101  0.90752697  0.09459207     0.04400
C537        C  0.05631851  0.92309289  0.07337907    -0.04700
C538        C  0.05571258  0.95171296  0.08904036    -0.23100
C539        C  0.07143492  0.96510585  0.12666845     0.13200
C540        C  0.08726224  0.94986663  0.14744736    -0.12300
N541        N  0.06947043  0.87712099  0.07875236     0.64900
H542        H  0.04405448  0.91203672  0.04484234     0.12800
N543        N  0.07187093  0.99421411  0.14414235     0.61600
H544        H  0.09898440  0.96009043  0.17645773     0.08900
O545        O  0.05497666  0.84872049  0.26468860    -0.39900
O546        O  0.04725814  0.80614388  0.22748138    -0.39100
O547        O  0.17754365  0.96968312  0.14261224    -0.39100
O548        O  0.16861255  0.93194109  0.09635364    -0.36800
O549        O  0.04930858  0.98920017  0.17002398    -0.37700
O550        O  0.09895190  0.02371954  0.14140648    -0.33800
O551        O  0.04224472  0.84810640  0.08413679    -0.35200
O552        O  0.09114976  0.88003586  0.05274023    -0.39500
C553        C  0.13597106  0.73154260  0.34198486    -0.13200
C554        C  0.10095798  0.70613760  0.33626219     0.17100
C555        C  0.08116932  0.71235147  0.30842547     0.03400
C556        C  0.09662051  0.74311536  0.28646708    -0.11700
C557        C  0.13161251  0.76831202  0.29186935    -0.02800
C558        C  0.15136941  0.76258860  0.32025083     0.02700
C559        C  0.08481094  0.67447486  0.36145783     0.09500
N560        N  0.04526143  0.68770753  0.30220820     0.65900
H561        H  0.08100311  0.74756133  0.26529376     0.18800
N562        N  0.18709661  0.78773667  0.32698120     0.76400
H563        H  0.15129273  0.72753569  0.36403357     0.10300
C564        C  0.09731252  0.65150719  0.36184645     0.04000
C565        C  0.08151967  0.62218004  0.38648035    -0.04700
C566        C  0.05331973  0.61508956  0.41118317    -0.23100
C567        C  0.04146363  0.63867504  0.41153499     0.13200
C568        C  0.05718477  0.66788696  0.38672691    -0.12300
N569        N  0.12553008  0.65718648  0.33681772     0.64900
H570        H  0.09118146  0.60451705  0.38579889     0.12800
N571        N  0.01498021  0.63457399  0.43854715     0.61600
H572        H  0.04823447  0.68611869  0.38794938     0.08900
O573        O  0.19571180  0.80601483  0.35825512    -0.39900
O574        O  0.21002259  0.78595891  0.30722317    -0.39100
O575        O  0.02277979  0.69345535  0.31658138    -0.39100
O576        O  0.03653891  0.66516083  0.27525335    -0.36800
O577        O  0.02343813  0.64793011  0.47295130    -0.37700
O578        O  0.98522202  0.62532047  0.42512315    -0.33800
O579        O  0.11924665  0.64322822  0.30270716    -0.35200
O580        O  0.15518389  0.66884685  0.35205455    -0.39500
C581        C  0.26490505  0.90960042  0.35038739    -0.13200
C582        C  0.29151376  0.90357748  0.33987764     0.17100
C583        C  0.28662926  0.88204165  0.30683106     0.03400
C584        C  0.25572590  0.86728404  0.28498244    -0.11700
C585        C  0.22958861  0.87427643  0.29455084    -0.02800
C586        C  0.23424880  0.89544590  0.32798393     0.02700
C587        C  0.32344079  0.91859088  0.36471257     0.09500
N588        N  0.31327550  0.87582444  0.29423971     0.65900
H589        H  0.25229138  0.85038897  0.26005314     0.18800
N590        N  0.20913907  0.90451939  0.33831040     0.76400
H591        H  0.26793518  0.92550225  0.37622727     0.10300
C592        C  0.34409589  0.95449376  0.37177746     0.04000
C593        C  0.37386788  0.96753712  0.39553534    -0.04700
C594        C  0.38360812  0.94549662  0.41323099    -0.23100
C595        C  0.36203768  0.90934718  0.40736694     0.13200
C596        C  0.33253461  0.89640956  0.38307536    -0.12300
N597        N  0.33555061  0.97817543  0.35455436     0.64900
H598        H  0.38876251  0.49529537  0.39968360     0.12800
N599        N  0.36858457  0.88524111  0.42731741     0.61600
H600        H  0.31606563  0.86861427  0.37929644     0.08900
O601        O  0.21349894  0.93296640  0.32605471    -0.39900
O602        O  0.18921138  0.88970428  0.36765535    -0.39100
O603        O  0.30979056  0.84660415  0.30053441    -0.39100
O604        O  0.33563692  0.89611169  0.26932199    -0.36800
O605        O  0.35400552  0.87259117  0.46043813    -0.37700
O606        O  0.38216516  0.87109525  0.40818091    -0.33800
O607        O  0.31960152  0.48945487  0.37722874    -0.35200
O608        O  0.34855176  0.99202959  0.32125795    -0.39500
C609        C  0.08880705  0.86820295  0.34943377    -0.13200
C610        C  0.10036793  0.90316056  0.34192980     0.17100
C611        C  0.12661371  0.92136562  0.31329838     0.03400
C612        C  0.13957159  0.90413389  0.29133383    -0.11700
C613        C  0.12707804  0.86888562  0.29758404    -0.02800
C614        C  0.10225866  0.85104068  0.32784934     0.02700
C615        C  0.08517200  0.92033744  0.36469659     0.09500
N616        N  0.13966168  0.95711864  0.30539349     0.65900
H617        H  0.15935578  0.91834218  0.26884108     0.18800
N618        N  0.08863315  0.81501221  0.33485933     0.76400
H619        H  0.06892365  0.85408361  0.37185012     0.10300
C620        C  0.05025427  0.91071468  0.35953399     0.04000
C621        C  0.03591434  0.92565256  0.38350531    -0.04700
C622        C  0.05597091  0.95074596  0.41239759    -0.23100
C623        C  0.09124887  0.96082757  0.41694750     0.13200
C624        C  0.10542068  0.94555064  0.39317231    -0.12300
N625        N  0.02941726  0.88670078  0.32908427     0.64900
H626        H  0.00898988  0.91796379  0.37894949     0.12800
N627        N  0.11250477  0.48616432  0.44425840     0.61600
H628        H  0.13225005  0.95283418  0.39763566     0.08900
O629        O  0.10082841  0.80572743  0.36293668    -0.39900
O630        O  0.06033860  0.79299699  0.31878996    -0.39100
O631        O  0.16885459  0.97954147  0.31921465    -0.39100
O632        O  0.12611430  0.96545523  0.27789661    -0.36800
O633        O  0.11416428  0.47667217  0.47932411    -0.37700
O634        O  0.13562979  0.51580255  0.43238261    -0.33800
O635        O  0.50602392  0.85644505  0.33869878    -0.35200
O636        O  0.02976897  0.89761883  0.29418020    -0.39500
C637        C  0.37060138  0.60431752  0.85264791    -0.13200
C638        C  0.40419644  0.61304704  0.84157015     0.17100
C639        C  0.42103091  0.63702169  0.81028936     0.03400
C640        C  0.40347708  0.65040432  0.78950865    -0.11700
C641        C  0.36898708  0.63986355  0.79876738    -0.02800
C642        C  0.35296948  0.61762028  0.83180560     0.02700
C643        C  0.42022643  0.59554093  0.86210090     0.09500
N644        N  0.45498269  0.64627162  0.79742082     0.65900
H645        H  0.41655646  0.66831699  0.76500494     0.18800
N646        N  0.31786864  0.60587647  0.84248168     0.76400
H647        H  0.35751109  0.58609016  0.87689993     0.10300
C648        C  0.44732292  0.61312142  0.88985240     0.04000
C649        C  0.45994909  0.59508105  0.91097883    -0.04700
C650        C  0.44556571  0.55927352  0.90583095    -0.23100
C651        C  0.41873194  0.54174659  0.87744567     0.13200
C652        C  0.40643032  0.56000007  0.85583246    -0.12300
N653        N  0.46065933  0.64872695  0.89904043     0.64900
H654        H  0.48031438  0.60907410  0.93284361     0.12800
N655        N  0.40414292  0.50570482  0.86964039     0.61600
H656        H  0.38560637  0.54625591  0.83440840     0.08900
O657        O  0.31182394  0.61802950  0.87335106    -0.39900
O658        O  0.29386959  0.57797992  0.82774293    -0.39100
O659        O  0.45798514  0.62967469  0.76896616    -0.39100
O660        O  0.48028448  0.67584177  0.80594120    -0.36800
O661        O  0.37366444  0.98447439  0.89439119    -0.37700
O662        O  0.40895068  0.99474099  0.84453889    -0.33800
O663        O  0.44516068  0.65647384  0.92464740    -0.35200
O664        O  0.49147350  0.67090047  0.88961332    -0.39500
C665        C  0.37574214  0.79442031  0.80813400    -0.13200
C666        C  0.40003722  0.79851993  0.83719401     0.17100
C667        C  0.40777587  0.77214115  0.84214574     0.03400
C668        C  0.39071082  0.74216153  0.81871466    -0.11700
C669        C  0.36579580  0.73761839  0.79024917    -0.02800
C670        C  0.35851256  0.76440922  0.78473670     0.02700
C671        C  0.41490513  0.82944221  0.86354283     0.09500
N672        N  0.43140981  0.77440897  0.87224106     0.65900
H673        H  0.39674082  0.72197798  0.82316987     0.18800
N674        N  0.33309346  0.76147984  0.75672576     0.76400
H675        H  0.36947530  0.81448633  0.80422696     0.10300
C676        C  0.45055133  0.85471429  0.86355121     0.04000
C677        C  0.46310016  0.88362922  0.88863996    -0.04700
C678        C  0.44060075  0.88888579  0.91273984    -0.23100
C679        C  0.40473289  0.86389205  0.91192366     0.13200
C680        C  0.39239020  0.83439472  0.88785094    -0.12300
N681        N  0.47385787  0.85297323  0.83594527     0.64900
H682        H  0.49057646  0.90295303  0.88785125     0.12800
N683        N  0.38047866  0.86778987  0.93552077     0.61600
H684        H  0.36483543  0.81528454  0.88780519     0.08900
O685        O  0.34225067  0.78399036  0.72952862    -0.39900
O686        O  0.30145718  0.74386095  0.76607202    -0.39100
O687        O  0.42023118  0.76417256  0.90723153    -0.39100
O688        O  0.45966379  0.77716995  0.86171410    -0.36800
O689        O  0.36335867  0.87966898  0.91947234    -0.37700
O690        O  0.37085670  0.85264657  0.96891755    -0.33800
O691        O  0.97451491  0.86236657  0.80019503    -0.35200
O692        O  0.49914692  0.85114945  0.84913816    -0.39500
C693        C  0.22597160  0.62810020  0.85190685    -0.13200
C694        C  0.20163013  0.59356294  0.84282390     0.17100
C695        C  0.20878180  0.57674896  0.81216222     0.03400
C696        C  0.23980794  0.59490332  0.79081160    -0.11700
C697        C  0.26352181  0.63000325  0.79855699    -0.02800
C698        C  0.25676041  0.64651137  0.83012071     0.02700
C699        C  0.16789599  0.57700351  0.86354816     0.09500
N700        N  0.18377187  0.54230380  0.80012951     0.65900
H701        H  0.24488927  0.58175626  0.76700242     0.18800
N702        N  0.27909773  0.68249864  0.83846214     0.76400
H703        H  0.22043387  0.64124497  0.87530589     0.10300
C704        C  0.15759341  0.54933532  0.89042142     0.04000
C705        C  0.12629885  0.53610321  0.91120671    -0.04700
C706        C  0.10535281  0.55061262  0.90654232    -0.23100
C707        C  0.11568127  0.57818118  0.87920649     0.13200
C708        C  0.14662920  0.59090043  0.85789072    -0.12300
N709        N  0.17966316  0.53606221  0.89913969     0.64900
H710        H  0.11919025  0.51535731  0.93252551     0.12800
N711        N  0.09504525  0.59340368  0.87239068     0.61600
H712        H  0.15444093  0.61220083  0.83716666     0.08900
O713        O  0.30193810  0.69145154  0.86524828    -0.39900
O714        O  0.26868434  0.70284730  0.82970739    -0.39100
O715        O  0.16079788  0.53779031  0.77509179    -0.39100
O716        O  0.19025253  0.51850409  0.80550501    -0.36800
O717        O  0.10184762  0.12289778  0.88976403    -0.37700
O718        O  0.07362665  0.08502002  0.84292971    -0.33800
O719        O  0.20284862  0.55079658  0.92552416    -0.35200
O720        O  0.17046370  0.50565487  0.88860396    -0.39500
C721        C  0.37476723  0.58653229  0.68927429    -0.13200
C722        C  0.40086095  0.60824680  0.66234424     0.17100
C723        C  0.40899452  0.64278755  0.65799067     0.03400
C724        C  0.39075090  0.65466788  0.68011457    -0.11700
C725        C  0.36506216  0.63307189  0.70757398    -0.02800
C726        C  0.35722336  0.59858185  0.71231396     0.02700
C727        C  0.41694682  0.59333698  0.63684365     0.09500
N728        N  0.43652106  0.66642838  0.63237145     0.65900
H729        H  0.39745836  0.68139076  0.67671465     0.18800
N730        N  0.33120974  0.57505610  0.73955912     0.76400
H731        H  0.36726948  0.55954505  0.69184868     0.10300
C732        C  0.43291110  0.57623205  0.65351010     0.04000
C733        C  0.44514229  0.56001985  0.62856273    -0.04700
C734        C  0.44177063  0.55997963  0.58676348    -0.23100
C735        C  0.42574561  0.57719704  0.57001077     0.13200
C736        C  0.41364668  0.59362913  0.59511390    -0.12300
N737        N  0.43813806  0.57600508  0.69565391     0.64900
H738        H  0.45759362  0.54740462  0.64241336     0.12800
N739        N  0.42065165  0.57759259  0.52782977     0.61600
H740        H  0.40060783  0.60590503  0.58186536     0.08900
O741        O  0.34056384  0.56479061  0.76949150    -0.39900
O742        O  0.30069131  0.55614230  0.72684253    -0.39100
O743        O  0.42943523  0.67624668  0.60026387    -0.39100
O744        O  0.46699338  0.68326571  0.64605013    -0.36800
O745        O  0.39222443  0.55492972  0.51259585    -0.37700
O746        O  0.44080762  0.60432406  0.50786644    -0.33800
O747        O  0.46844682  0.59475394  0.70919776    -0.35200
O748        O  0.41640259  0.55026621  0.71596622    -0.39500
C749        C  0.36365442  0.76627399  0.64328788    -0.13200
C750        C  0.39858178  0.79129445  0.65026712     0.17100
C751        C  0.41681755  0.78551271  0.68052935     0.03400
C752        C  0.39979195  0.75572768  0.70415102    -0.11700
C753        C  0.36446146  0.73154536  0.69863406    -0.02800
C754        C  0.34643634  0.73647593  0.66716958     0.02700
C755        C  0.41466415  0.82458065  0.62826888     0.09500
N756        N  0.45271571  0.80968881  0.68753067     0.65900
H757        H  0.41419517  0.75167365  0.72738172     0.18800
N758        N  0.31004428  0.71334705  0.66151937     0.76400
H759        H  0.34923065  0.77072209  0.62044288     0.10300
C760        C  0.41909800  0.82605923  0.58650954     0.04000
C761        C  0.43274287  0.85770956  0.56651217    -0.04700
C762        C  0.44232459  0.88855470  0.58729869    -0.23100
C763        C  0.43771069  0.88688223  0.62938693     0.13200
C764        C  0.42403358  0.85507501  0.64930313    -0.12300
N765        N  0.41083197  0.79577809  0.56412318     0.64900
H766        H  0.43618085  0.85801209  0.53433455     0.12800
N767        N  0.44593460  0.91687487  0.65235938     0.61600
H768        H  0.42008050  0.85405716  0.68145960     0.08900
O769        O  0.29964717  0.69257163  0.63240446    -0.39900
O770        O  0.28893242  0.71952978  0.67892909    -0.39100
O771        O  0.46166257  0.82887557  0.71803753    -0.39100
O772        O  0.47522217  0.80665522  0.66850168    -0.36800
O773        O  0.42285086  0.92431939  0.65841915    -0.37700
O774        O  0.47328486  0.93134450  0.67309325    -0.33800
O775        O  0.38432275  0.78197106  0.54198026    -0.35200
O776        O  0.43345593  0.78743564  0.55999710    -0.39500
C777        C  0.22184291  0.59752406  0.65407534    -0.13200
C778        C  0.20010023  0.61047490  0.66180048     0.17100
C779        C  0.20841976  0.63434473  0.69316824     0.03400
C780        C  0.23870706  0.64546278  0.71540769    -0.11700
C781        C  0.26075282  0.63273506  0.70743231    -0.02800
C782        C  0.25189017  0.60823259  0.67652465     0.02700
C783        C  0.16769584  0.59653044  0.63851461     0.09500
N784        N  0.18658698  0.64772519  0.70250776     0.65900
H785        H  0.24525701  0.66451132  0.73892415     0.18800
N786        N  0.27083395  0.59123775  0.66999208     0.76400
H787        H  0.21481012  0.57796296  0.63106387     0.10300
C788        C  0.16849943  0.60027682  0.59662660     0.04000
C789        C  0.13767584  0.58349984  0.57479881    -0.04700
C790        C  0.10552627  0.56215592  0.59369280    -0.23100
C791        C  0.10487648  0.55825109  0.63585122     0.13200
C792        C  0.13582710  0.57569343  0.65775779    -0.12300
N793        N  0.20052676  0.62070803  0.57572357     0.64900
H794        H  0.13918218  0.58708521  0.54257791     0.12800
N795        N  0.07353720  0.53528678  0.65672617     0.61600
H796        H  0.13514410  0.57172164  0.68989528     0.08900
O797        O  0.29520561  0.60375729  0.64478316    -0.39900
O798        O  0.25602053  0.55940237  0.67806897    -0.39100
O799        O  0.16782796  0.63709510  0.73344880    -0.39100
O800        O  0.19184807  0.67501687  0.68551520    -0.36800
O801        O  0.06921980  0.00507863  0.66210787    -0.37700
O802        O  0.05960880  0.04657064  0.67618359    -0.33800
O803        O  0.21363806  0.60586424  0.55706626    -0.35200
O804        O  0.21119686  0.65209453  0.56849706    -0.39500
C805        C  0.83030962  0.16507398  0.71050236     0.46600
H806        H  0.83010247  0.16328542  0.67739070    -0.02400
C807        C  0.83177202  0.17008412  0.78813343     0.46600
H808        H  0.83283865  0.17226690  0.82114922    -0.02400
C809        C  0.84934282  0.20261099  0.72553126    -0.16100
C810        C  0.79422985  0.14831860  0.72954111    -0.15900
C811        C  0.84809542  0.14777759  0.73137862    -0.16300
C812        C  0.84994467  0.20532258  0.76658012    -0.16200
C813        C  0.79499957  0.15054762  0.77071751    -0.15800
C814        C  0.84926219  0.15089024  0.77240375    -0.16100
C815        C  0.66050867  0.33539255  0.28849467     0.46600
H816        H  0.66043063  0.33394452  0.32164397    -0.02400
C817        C  0.66014050  0.33798753  0.21076018     0.46600
H818        H  0.66018815  0.33914431  0.17755352    -0.02400
C819        C  0.69687525  0.35830161  0.27026346    -0.16100
C820        C  0.64603134  0.29996845  0.26822634    -0.15900
C821        C  0.63890144  0.35019207  0.27185803    -0.16300
C822        C  0.69667180  0.35966869  0.22897722    -0.16200
C823        C  0.64557778  0.30127816  0.22716691    -0.15800
C824        C  0.63860509  0.35149028  0.23072056    -0.16100
O825        O  0.98665862  0.43428539  0.95046667    -0.77400
C826        C  0.57449632  0.03901814  0.93111809     0.83700
O827        O  0.52395547  0.48130057  0.08346211    -0.78500
O828        O  0.54346163  0.08632305  0.02187860    -0.80000
O829        O  0.93919121  0.01022932  0.94226304    -0.79800
O830        O  0.93662952  0.43286795  0.94646611    -0.78400
Zn831      Zn  0.51938655  0.47711055  0.98154063     1.55700
O832        O  0.98979976  0.05998385  0.94397706    -0.79800
Cd833      Cd  0.94805735  0.47737081  0.97796843     1.59700
Cd834      Cd  0.99784485  0.00394359  0.05906996     1.59600
O835        O  0.91409275  0.46214176  0.02588614    -0.79800
O836        O  0.99723333  0.00198166  0.99878867    -1.90300
Cd837      Cd  0.52239545  0.05006835  0.97679709     1.59900
O838        O  0.94608844  0.47752685  0.08154004    -0.79700
O839        O  0.56247204  0.05828569  0.93976422    -0.78400
C840        C  0.53853365  0.46680448  0.06632482     0.84100
C841        C  0.95531700  0.41988350  0.93859812     0.83800
O842        O  0.56084506  0.00838772  0.94497999    -0.77300
C843        C  0.95836959  0.04203705  0.93250944     0.84600
O844        O  0.53785547  0.46357718  0.02838985    -0.77400
C845        C  0.91660799  0.46324425  0.06402242     0.84700
C846        C  0.54123455  0.08433267  0.05988410     0.85100
O847        O  0.52398607  0.05524935  0.07787281    -0.79900
O848        O  0.50433673  0.06813413  0.44664781    -0.77400
C849        C  0.91581534  0.46144822  0.43704779     0.83700
O850        O  0.96901223  0.02512199  0.58157012    -0.78500
O851        O  0.95752886  0.42070717  0.52563972    -0.80000
O852        O  0.55729752  0.49666529  0.44913759    -0.79800
O853        O  0.55468513  0.06992582  0.44615603    -0.78400
Zn854      Zn  0.97238085  0.02601851  0.48055470     1.55700
O855        O  0.50642728  0.44748437  0.44401688    -0.79800
Cd856      Cd  0.54511096  0.02827216  0.48179915     1.59700
Cd857      Cd  0.99480901  0.00123400  0.56069020     1.59600
O858        O  0.57796866  0.04734119  0.53014309    -0.79800
O859        O  0.99601220  0.00287813  0.50053487    -1.90300
Cd860      Cd  0.97299101  0.45534668  0.47898184     1.59900
O861        O  0.54467995  0.02823836  0.58449400    -0.79700
O862        O  0.92895103  0.44326829  0.44662388    -0.78400
C863        C  0.95579894  0.04082627  0.56407823     0.84100
C864        C  0.53595722  0.08230948  0.43577118     0.83800
O865        O  0.93035036  0.49325339  0.44704649    -0.77300
C866        C  0.53882097  0.46568200  0.43647050     0.84600
O867        O  0.95569453  0.04295083  0.52608197    -0.77400
C868        C  0.57449561  0.04525141  0.56809602     0.84700
C869        C  0.95736568  0.42252430  0.56370396     0.85100
O870        O  0.96955216  0.45151444  0.58156726    -0.79900
C871        C  0.60115888  0.17808566  0.09256343    -0.13200
C872        C  0.58991770  0.17681953  0.13188141     0.17100
C873        C  0.56286920  0.14542208  0.14737496     0.03400
C874        C  0.54781921  0.11564727  0.12365589    -0.11700
C875        C  0.55876157  0.11660231  0.08401486    -0.02800
C876        C  0.58585600  0.14845819  0.06846171     0.02700
C877        C  0.60530287  0.20898257  0.15552702     0.09500
N878        N  0.54957121  0.14366619  0.18666344     0.65900
H879        H  0.52682944  0.09177415  0.13619499     0.18800
N880        N  0.59855524  0.15124355  0.02858743     0.76400
H881        H  0.62179758  0.20237906  0.08038142     0.10300
C882        C  0.63442112  0.21941577  0.18008053     0.04000
C883        C  0.64769494  0.24982959  0.20285172    -0.04700
C884        C  0.63258885  0.27043395  0.20069264    -0.23100
C885        C  0.60428120  0.26039645  0.17456835     0.13200
C886        C  0.59072960  0.22968843  0.15270397    -0.12300
N887        N  0.65098813  0.19962829  0.18141187     0.64900
H888        H  0.66975656  0.25739487  0.22223324     0.12800
N889        N  0.58710593  0.27946456  0.17180507     0.61600
H890        H  0.56849018  0.22182682  0.13348806     0.08900
O891        O  0.62562683  0.15004267  0.02281910    -0.39900
O892        O  0.58772067  0.16258437  0.00118880    -0.39100
O893        O  0.02270555  0.14551731  0.19085145    -0.39100
O894        O  0.55944301  0.13241223  0.21515300    -0.36800
O895        O  0.55558398  0.26437567  0.18170985    -0.37700
O896        O  0.59871738  0.30464314  0.14780117    -0.33800
O897        O  0.67271061  0.20404966  0.15466435    -0.35200
O898        O  0.63919357  0.17359707  0.20411887    -0.39500
C899        C  0.84992380  0.42287370  0.14876346    -0.13200
C900        C  0.81992461  0.41785601  0.12965765     0.17100
C901        C  0.82195427  0.42803389  0.08940329     0.03400
C902        C  0.85355923  0.44244109  0.06890879    -0.11700
C903        C  0.88387394  0.44766205  0.08781786    -0.02800
C904        C  0.88174324  0.43769361  0.12843950     0.02700
C905        C  0.78737832  0.40353135  0.15308576     0.09500
N906        N  0.79270380  0.42566277  0.06946667     0.65900
H907        H  0.85466399  0.94734732  0.03850254     0.18800
N908        N  0.91129964  0.44182915  0.14945004     0.76400
H909        H  0.84862958  0.41530771  0.17987110     0.10300
C910        C  0.75969662  0.36929055  0.14782437     0.04000
C911        C  0.73045600  0.35613292  0.17252803    -0.04700
C912        C  0.72794159  0.37644429  0.20261840    -0.23100
C913        C  0.75526188  0.41120655  0.20700859     0.13200
C914        C  0.78480213  0.42415117  0.18263077    -0.12300
N915        N  0.76148394  0.34698811  0.11884548     0.64900
H916        H  0.70992503  0.32934410  0.16888448     0.12800
N917        N  0.75315923  0.43405654  0.23494518     0.61600
H918        H  0.80584320  0.45068160  0.18651757     0.08900
O919        O  0.91548506  0.41633759  0.15268747    -0.39900
O920        O  0.92790882  0.46750821  0.17231942    -0.39100
O921        O  0.78677524  0.94597051  0.07146343    -0.39100
O922        O  0.77686201  0.40244499  0.04344994    -0.36800
O923        O  0.73460191  0.44668912  0.22649074    -0.37700
O924        O  0.77625614  0.44849105  0.26150046    -0.33800
O925        O  0.77399446  0.32868364  0.12898110    -0.35200
O926        O  0.74275163  0.33888603  0.08794140    -0.39500
C927        C  0.57959546  0.38007474  0.18400838    -0.13200
C928        C  0.60284928  0.40600009  0.15803362     0.17100
C929        C  0.63758791  0.41444358  0.15686643     0.03400
C930        C  0.64816520  0.39602814  0.18069878    -0.11700
C931        C  0.62490586  0.36971668  0.20667779    -0.02800
C932        C  0.59015352  0.36208470  0.20862341     0.02700
C933        C  0.58993915  0.42407778  0.13322780     0.09500
N934        N  0.66266174  0.44245903  0.13289513     0.65900
H935        H  0.67508358  0.40286963  0.17945096     0.18800
N936        N  0.56499566  0.33653323  0.23503757     0.76400
H937        H  0.55284887  0.37381539  0.18530586     0.10300
C938        C  0.57917961  0.41386057  0.09352110     0.04400
C939        C  0.56290814  0.42838677  0.07241535    -0.04700
C940        C  0.55658280  0.45288510  0.09028427    -0.23100
C941        C  0.56791228  0.46337055  0.13013681     0.13200
C942        C  0.58440899  0.44889823  0.15109304    -0.12300
N943        N  0.58300501  0.38748356  0.07494652     0.64900
H944        H  0.55436614  0.41964605  0.04200231     0.12800
N945        N  0.56316136  0.48874135  0.14978539     0.61600
H946        H  0.59232975  0.45655573  0.18193258     0.08900
O947        O  0.55514692  0.34681705  0.26444753    -0.39900
O948        O  0.54399675  0.30705373  0.22101116    -0.39100
O949        O  0.68191831  0.47156742  0.14900783    -0.39100
O950        O  0.67108437  0.43618966  0.09933738    -0.36800
O951        O  0.53730395  0.47901344  0.17244173    -0.37700
O952        O  0.58829830  0.51950480  0.15202004    -0.33800
O953        O  0.55776146  0.35669817  0.07490591    -0.35200
O954        O  0.60813964  0.39593965  0.05152832    -0.39500
C955        C  0.63450989  0.22888429  0.33962581    -0.13200
C956        C  0.59915452  0.20430251  0.33432441     0.17100
C957        C  0.57955789  0.21169990  0.30756272     0.03400
C958        C  0.59549586  0.24277044  0.28615016    -0.11700
C959        C  0.63073905  0.26726236  0.29135424    -0.02800
C960        C  0.65032343  0.26041071  0.31876093     0.02700
C961        C  0.58250621  0.17243892  0.35922235     0.09500
N962        N  0.54331757  0.18803349  0.30208843     0.65900
H963        H  0.58006054  0.24807124  0.26565878     0.18800
N964        N  0.68615422  0.28508128  0.32571979     0.76400
H965        H  0.64970560  0.22395005  0.36089664     0.10300
C966        C  0.59356058  0.14833791  0.35798592     0.04000
C967        C  0.57816645  0.11939423  0.38325697    -0.04700
C968        C  0.55153686  0.11362252  0.40992941    -0.23100
C969        C  0.54064957  0.13796077  0.41127973     0.13200
C970        C  0.55617680  0.16695365  0.38606542    -0.12300
N971        N  0.61973164  0.15240428  0.33049247     0.64900
H972        H  0.58681662  0.10095243  0.38149852     0.12800
N973        N  0.51537422  0.13479571  0.43959803     0.61600
H974        H  0.54816973  0.18588171  0.38820793     0.08900
O975        O  0.69473911  0.30436192  0.35613789    -0.39900
O976        O  0.70896591  0.28210171  0.30732347    -0.39100
O977        O  0.52180321  0.19504557  0.31671733    -0.39100
O978        O  0.53335050  0.16460420  0.27600833    -0.36800
O979        O  0.52517811  0.14814040  0.47384740    -0.37700
O980        O  0.48541913  0.12630039  0.42758493    -0.33800
O981        O  0.61100724  0.13943336  0.29594326    -0.35200
O982        O  0.64969677  0.16181478  0.34334073    -0.39500
C983        C  0.76342964  0.40826421  0.35196629    -0.13200
C984        C  0.79037039  0.40284960  0.34116883     0.17100
C985        C  0.78589753  0.38179754  0.30777665     0.03400
C986        C  0.75507681  0.36697787  0.28575438    -0.11700
C987        C  0.72869028  0.37356858  0.29546101    -0.02800
C988        C  0.73289120  0.39413462  0.32935420     0.02700
C989        C  0.82233746  0.41812919  0.36590191     0.09500
N990        N  0.81294670  0.37628436  0.29492775     0.65900
H991        H  0.75196719  0.35051402  0.26049803     0.18800
N992        N  0.70747776  0.40273292  0.33990317     0.76400
H993        H  0.76616774  0.42377090  0.37807591     0.10300
C994        C  0.84291751  0.45409081  0.37257110     0.04000
C995        C  0.87301798  0.46744790  0.39578072    -0.04700
C996        C  0.88306521  0.44565020  0.41346909    -0.23100
C997        C  0.86147211  0.40941816  0.40816588     0.13200
C998        C  0.83173711  0.39618370  0.38423678    -0.12300
N999        N  0.83394560  0.47750640  0.35550880     0.64900
H1000       H  0.88964734  0.99533237  0.39978188     0.12800
N1001       N  0.86824483  0.38554787  0.42832358     0.61600
H1002       H  0.81534093  0.36834337  0.38068369     0.08900
O1003       O  0.71118689  0.43083994  0.32735323    -0.39900
O1004       O  0.68800860  0.38801783  0.36961960    -0.39100
O1005       O  0.80986572  0.34714441  0.30042440    -0.39100
O1006       O  0.83549888  0.39734008  0.27069464    -0.36800
O1007       O  0.85445914  0.37370376  0.46200146    -0.37700
O1008       O  0.88112085  0.37077077  0.40908351    -0.33800
O1009       O  0.82225245  0.99114939  0.37635954    -0.35200
O1010       O  0.84766127  0.49235291  0.32285633    -0.39500
C1011       C  0.58714333  0.36631310  0.34964249    -0.13200
C1012       C  0.59870135  0.40132860  0.34245212     0.17100
C1013       C  0.62524868  0.41979727  0.31419078     0.03400
C1014       C  0.63840214  0.40278294  0.29221612    -0.11700
C1015       C  0.62587594  0.36750366  0.29807460    -0.02800
C1016       C  0.60083440  0.34937497  0.32803255     0.02700
C1017       C  0.58345217  0.41844128  0.36529696     0.09500
N1018       N  0.63855576  0.45567038  0.30676333     0.65900
H1019       H  0.65843783  0.41722806  0.27007226     0.18800
N1020       N  0.58721015  0.31329585  0.33463713     0.76400
H1021       H  0.56713291  0.35199528  0.37184773     0.10300
C1022       C  0.54815721  0.40790060  0.36152577     0.04000
C1023       C  0.53426521  0.42360767  0.38492589    -0.04700
C1024       C  0.55500423  0.45012821  0.41211809    -0.23100
C1025       C  0.59050924  0.46078221  0.41558552     0.13200
C1026       C  0.60429513  0.44493267  0.39220975    -0.12300
N1027       N  0.52634901  0.38197601  0.33322929     0.64900
H1028       H  0.50706620  0.41523077  0.38136219     0.12800
N1029       N  0.61255911  0.98507823  0.44696076     0.61600
H1030       H  0.63135711  0.45278285  0.39585891     0.08900
O1031       O  0.59844576  0.30374309  0.36346446    -0.39900
O1032       O  0.55975134  0.29134950  0.31702039    -0.39100
O1033       O  0.66721442  0.47784124  0.32198389    -0.39100
O1034       O  0.62625954  0.46441798  0.27826717    -0.36800
O1035       O  0.61384305  0.97422598  0.48137901    -0.37700
O1036       O  0.63545684  0.01536802  0.43676019    -0.33800
O1037       O  0.00426709  0.35202720  0.34538092    -0.35200
O1038       O  0.52418715  0.39082240  0.29799673    -0.39500
C1039       C  0.86917305  0.10526157  0.85487872    -0.13200
C1040       C  0.90259868  0.11323758  0.84406830     0.17100
C1041       C  0.91959054  0.13629079  0.81205855     0.03400
C1042       C  0.90241548  0.14961967  0.79044164    -0.11700
C1043       C  0.86803522  0.13969786  0.79937340    -0.02800
C1044       C  0.85183729  0.11837356  0.83305230     0.02700
C1045       C  0.91820389  0.09561666  0.86522427     0.09500
N1046       N  0.95313535  0.14427136  0.79908271     0.65900
H1047       H  0.91565054  0.16686664  0.76543721     0.18800
N1048       N  0.81689325  0.10747300  0.84358402     0.76400
H1049       H  0.85595289  0.08770654  0.87966440     0.10300
C1050       C  0.94632450  0.11352441  0.89164870     0.04000
C1051       C  0.95924678  0.09557575  0.91241340    -0.04700
C1052       C  0.94416596  0.05957835  0.90822964    -0.23100
C1053       C  0.91607944  0.04168897  0.88143644     0.13200
C1054       C  0.90351577  0.05983274  0.86014019    -0.12300
N1055       N  0.96057153  0.14945746  0.89979636     0.64900
H1056       H  0.98051179  0.10985025  0.93315318     0.12800
N1057       N  0.90043980  0.00534495  0.87488197     0.61600
H1058       H  0.88190769  0.04584892  0.83973943     0.08900
O1059       O  0.81124513  0.12075036  0.87369021    -0.39900
O1060       O  0.79251570  0.07941533  0.82962465    -0.39100
O1061       O  0.95531102  0.12506635  0.77334223    -0.39100
O1062       O  0.97878802  0.17434054  0.80454193    -0.36800
O1063       O  0.87659071  0.48387294  0.88722370    -0.37700
O1064       O  0.91457375  0.49637355  0.83984387    -0.33800
O1065       O  0.94633616  0.15825433  0.92592241    -0.35200
O1066       O  0.99115874  0.17096793  0.88886048    -0.39500
C1067       C  0.87908264  0.29542390  0.80760785    -0.13200
C1068       C  0.90216829  0.29838455  0.83768519     0.17100
C1069       C  0.90890128  0.27134852  0.84296126     0.03400
C1070       C  0.89190525  0.24178317  0.81889049    -0.11700
C1071       C  0.86799877  0.23829683  0.78956963    -0.02800
C1072       C  0.86181845  0.26577243  0.78368904     0.02700
C1073       C  0.91655094  0.32875607  0.86476958     0.09500
N1074       N  0.93131833  0.27250180  0.87399067     0.65900
H1075       H  0.89707623  0.22102507  0.82361330     0.18800
N1076       N  0.83733187  0.26379927  0.75489503     0.76400
H1077       H  0.87361559  0.31603511  0.80346107     0.10300
C1078       C  0.95226959  0.35364053  0.86635620     0.04000
C1079       C  0.96420638  0.38247781  0.89141433    -0.04700
C1080       C  0.94111612  0.38788134  0.91417386    -0.23100
C1081       C  0.90527544  0.36302075  0.91221985     0.13200
C1082       C  0.89346414  0.33372961  0.88794709    -0.12300
N1083       N  0.97642812  0.35147364  0.84058544     0.64900
H1084       H  0.99175940  0.40161174  0.89168627     0.12800
N1085       N  0.88053837  0.36678075  0.93498293     0.61600
H1086       H  0.86586887  0.31478883  0.88683452     0.08900
O1087       O  0.84731038  0.28708860  0.72852010    -0.39900
O1088       O  0.80537365  0.24545759  0.76244164    -0.39100
O1089       O  0.91885039  0.26145813  0.90836203    -0.39100
O1090       O  0.95968531  0.27499959  0.86459056    -0.36800
O1091       O  0.86328280  0.37814166  0.91811017    -0.37700
O1092       O  0.87073448  0.35197291  0.96854302    -0.33800
O1093       O  0.47854605  0.36064891  0.80449144    -0.35200
O1094       O  0.00095891  0.34934336  0.85572566    -0.39500
C1095       C  0.72638845  0.13118829  0.84978071    -0.13200
C1096       C  0.70146298  0.09693450  0.84024504     0.17100
C1097       C  0.70798007  0.08011664  0.80901707     0.03400
C1098       C  0.73915579  0.09780462  0.78791582    -0.11700
C1099       C  0.76363486  0.13256704  0.79630644    -0.02800
C1100       C  0.75735822  0.14918660  0.82818407     0.02700
C1101       C  0.66808740  0.08029411  0.86175763     0.09500
N1102       N  0.68228217  0.04612195  0.79635201     0.65900
H1103       H  0.74383617  0.08451519  0.76391102     0.18800
N1104       N  0.78071887  0.18480937  0.83745124     0.76400
H1105       H  0.72134290  0.14434316  0.87363518     0.10300
C1106       C  0.65848999  0.05270242  0.88853564     0.04000
C1107       C  0.62729164  0.03888125  0.90969926    -0.04700
C1108       C  0.60574724  0.05276225  0.90552340    -0.23100
C1109       C  0.61550804  0.08042909  0.87843435     0.13200
C1110       C  0.64637306  0.09373024  0.85675327    -0.12300
N1111       N  0.68121497  0.04009855  0.89671092     0.64900
H1112       H  0.62070005  0.01815658  0.93085950     0.12800
N1113       N  0.59433859  0.09513580  0.87216511     0.61600
H1114       H  0.65368701  0.11500909  0.83616666     0.08900
O1115       O  0.80240848  0.19236485  0.86532066    -0.39900
O1116       O  0.77220095  0.20648639  0.82790802    -0.39100
O1117       O  0.65994095  0.04274507  0.77100481    -0.39100
O1118       O  0.68765187  0.02154884  0.80146676    -0.36800
O1119       O  0.60273480  0.62123171  0.88995233    -0.37700
O1120       O  0.57469684  0.58361160  0.84282202    -0.33800
O1121       O  0.70478123  0.05531799  0.92258241    -0.35200
O1122       O  0.67268437  0.00995155  0.88581434    -0.39500
C1123       C  0.87426834  0.08491658  0.69222502    -0.13200
C1124       C  0.89973061  0.10569610  0.66415646     0.17100
C1125       C  0.90748611  0.13995474  0.65801098     0.03400
C1126       C  0.88977248  0.15260074  0.67975680    -0.11700
C1127       C  0.86456459  0.13193661  0.70812826    -0.02800
C1128       C  0.85676697  0.09759305  0.71434753     0.02700
C1129       C  0.91523374  0.09004084  0.63891654     0.09500
N1130       N  0.93372554  0.16243944  0.63033868     0.65900
H1131       H  0.89632310  0.17913916  0.67502816     0.18800
N1132       N  0.83037229  0.07466863  0.74164481     0.76400
H1133       H  0.86693280  0.05807872  0.69604167     0.10300
C1134       C  0.93220723  0.07394577  0.65563128     0.04000
C1135       C  0.94484408  0.05804895  0.63069014    -0.04700
C1136       C  0.94093244  0.05745761  0.58891144    -0.23100
C1137       C  0.92366031  0.07342916  0.57222936     0.13200
C1138       C  0.91100511  0.08932017  0.59728037    -0.12300
N1139       N  0.93814742  0.07456216  0.69770775     0.64900
H1140       H  0.95815113  0.04627876  0.64445087     0.12800
N1141       N  0.91810348  0.07333862  0.53010272     0.61600
H1142       H  0.89706274  0.10063327  0.58402791     0.08900
O1143       O  0.83901171  0.06384290  0.77169100    -0.39900
O1144       O  0.79961726  0.05696101  0.72917350    -0.39100
O1145       O  0.92495474  0.16927777  0.59730888    -0.39100
O1146       O  0.96447083  0.18139099  0.64254432    -0.36800
O1147       O  0.88970654  0.05021258  0.51527937    -0.37700
O1148       O  0.93778034  0.09999675  0.50976219    -0.33800
O1149       O  0.96855528  0.09404409  0.71063090    -0.35200
O1150       O  0.91699652  0.04905418  0.71874070    -0.39500
C1151       C  0.86660651  0.26728748  0.64236189    -0.13200
C1152       C  0.90125701  0.29268782  0.64999859     0.17100
C1153       C  0.91927582  0.28718116  0.68083716     0.03400
C1154       C  0.90232326  0.25706193  0.70397648    -0.11700
C1155       C  0.86717931  0.23249119  0.69773658    -0.02800
C1156       C  0.84940338  0.23737145  0.66595124     0.02700
C1157       C  0.91702162  0.32596378  0.62797239     0.09500
N1158       N  0.95470302  0.31213975  0.68929803     0.65900
H1159       H  0.91652890  0.25321975  0.72763446     0.18800
N1160       N  0.81309558  0.21422419  0.65986356     0.76400
H1161       H  0.85222384  0.27159368  0.61933463     0.10300
C1162       C  0.91991075  0.32726395  0.58597353     0.04000
C1163       C  0.93290888  0.35882396  0.56601668    -0.04700
C1164       C  0.94301856  0.38970964  0.58695832    -0.23100
C1165       C  0.93955497  0.38817773  0.62918500     0.13200
C1166       C  0.92678637  0.35650893  0.64912395    -0.12300
N1167       N  0.91007778  0.29678225  0.56314191     0.64900
H1168       H  0.93519072  0.35896259  0.53365005     0.12800
N1169       N  0.94767620  0.41809256  0.65224924     0.61600
H1170       H  0.92352646  0.35559644  0.68141110     0.08900
O1171       O  0.80305351  0.19358178  0.63063019    -0.39900
O1172       O  0.79189014  0.22069843  0.67648632    -0.39100
O1173       O  0.96196616  0.33177916  0.71919939    -0.39100
O1174       O  0.97832947  0.30927963  0.67282469    -0.36800
O1175       O  0.92435609  0.42510367  0.65887858    -0.37700
O1176       O  0.97530936  0.43296820  0.67246175    -0.33800
O1177       O  0.88289473  0.28370127  0.54213628    -0.35200
O1178       O  0.93191136  0.28764160  0.55725291    -0.39500
C1179       C  0.72343642  0.10082454  0.65148654    -0.13200
C1180       C  0.70182101  0.11390838  0.65936228     0.17100
C1181       C  0.71046048  0.13803614  0.69047683     0.03400
C1182       C  0.74063605  0.14884773  0.71281069    -0.11700
C1183       C  0.76231786  0.13563928  0.70509209    -0.02800
C1184       C  0.75341039  0.11127284  0.67401396     0.02700
C1185       C  0.66901784  0.09955695  0.63683620     0.09500
N1186       N  0.68899805  0.15190221  0.69951940     0.65900
H1187       H  0.74732353  0.16794242  0.73631729     0.18800
N1188       N  0.77219571  0.09411358  0.66748948     0.76400
H1189       H  0.71625772  0.08124657  0.62844342     0.10300
C1190       C  0.66909180  0.10390917  0.59513529     0.04000
C1191       C  0.63804374  0.08636548  0.57378612    -0.04700
C1192       C  0.60640152  0.06372467  0.59301613    -0.23100
C1193       C  0.60646730  0.05946055  0.63505906     0.13200
C1194       C  0.63763298  0.07760786  0.65647691    -0.12300
N1195       N  0.70062451  0.12578154  0.57396138     0.64900
H1196       H  0.63897936  0.09038229  0.54165702     0.12800
N1197       N  0.57570955  0.03549898  0.65623906     0.61600
H1198       H  0.63757014  0.07333053  0.68849799     0.08900
O1199       O  0.79562857  0.10571479  0.64112519    -0.39900
O1200       O  0.75788561  0.06266532  0.67726638    -0.39100
O1201       O  0.67017049  0.14163124  0.73041960    -0.39100
O1202       O  0.69463712  0.17921950  0.68224133    -0.36800
O1203       O  0.56622242  0.50478876  0.66403515    -0.37700
O1204       O  0.55765159  0.54740112  0.67515247    -0.33800
O1205       O  0.71477454  0.11239304  0.55443939    -0.35200
O1206       O  0.70985400  0.15696005  0.56766664    -0.39500
C1207       C  0.82892728  0.66419139  0.71140217     0.46600
H1208       H  0.82829333  0.66244654  0.67826838    -0.02400
C1209       C  0.83142198  0.66920010  0.78907478     0.46600
H1210       H  0.83291404  0.67133503  0.82210584    -0.02400
C1211       C  0.84700858  0.70167690  0.72644545    -0.16100
C1212       C  0.79310275  0.64627039  0.73121669    -0.15900
C1213       C  0.84812576  0.64804944  0.73150256    -0.16300
C1214       C  0.84814065  0.70444360  0.76749860    -0.16200
C1215       C  0.79443130  0.64855918  0.77238862    -0.15800
C1216       C  0.84976292  0.65105170  0.77252795    -0.16100
C1217       C  0.66131515  0.83632962  0.28813415     0.46600
H1218       H  0.66146528  0.83516486  0.32128771    -0.02400
C1219       C  0.66053738  0.83828728  0.21038959     0.46600
H1220       H  0.66073637  0.83935025  0.17720553    -0.02400
C1221       C  0.69757806  0.85884395  0.26964827    -0.16100
C1222       C  0.64644662  0.80068701  0.26818932    -0.15900
C1223       C  0.63985672  0.85127002  0.27145206    -0.16300
C1224       C  0.69714477  0.85981322  0.22840756    -0.16200
C1225       C  0.64560826  0.80160526  0.22705620    -0.15800
C1226       C  0.63927184  0.85214559  0.23029752    -0.16100
O1227       O  0.98687412  0.93521199  0.94862043    -0.77400
C1228       C  0.57411694  0.53754255  0.93191678     0.83700
O1229       O  0.52487924  0.98178100  0.08261430    -0.78500
O1230       O  0.54341654  0.58593533  0.02201743    -0.80000
O1231       O  0.93974189  0.50974066  0.94040851    -0.79800
O1232       O  0.93674165  0.93371645  0.94623888    -0.78400
Zn1233     Zn  0.51989289  0.97780791  0.98040747     1.55700
O1234       O  0.99032884  0.55950362  0.94326115    -0.79800
Cd1235     Cd  0.94836166  0.97783247  0.97849878     1.59700
Cd1236     Cd  0.99697805  0.50342301  0.05929179     1.59600
O1237       O  0.91488747  0.96191482  0.02675191    -0.79800
O1238       O  0.99674214  0.50145618  0.99905986    -1.90300
Cd1239     Cd  0.52244871  0.54952816  0.97698364     1.59900
O1240       O  0.94720329  0.97777377  0.08210257    -0.79700
O1241       O  0.56262371  0.55728930  0.94039926    -0.78400
C1242       C  0.53867272  0.96664357  0.06520847     0.84100
C1243       C  0.95533313  0.92083826  0.93739480     0.83800
O1244       O  0.55999154  0.50694076  0.94586381    -0.77300
C1245       C  0.95917074  0.54158266  0.93086055     0.84600
O1246       O  0.53775730  0.96334204  0.02724439    -0.77400
C1247       C  0.91760679  0.96304272  0.06484398     0.84700
C1248       C  0.54066604  0.58392687  0.05999423     0.85100
O1249       O  0.52306988  0.55484775  0.07793779    -0.79900
O1250       O  0.50519783  0.56874811  0.44569935    -0.77400
C1251       C  0.91606666  0.96099512  0.43734198     0.83700
O1252       O  0.96876417  0.52660110  0.57993876    -0.78500
O1253       O  0.95712142  0.91970098  0.52596644    -0.80000
O1254       O  0.55765682  0.99672026  0.44979391    -0.79800
O1255       O  0.55571204  0.57086262  0.44714697    -0.78400
Zn1256     Zn  0.97262369  0.52681252  0.47927303     1.55700
O1257       O  0.50702906  0.94724571  0.44447408    -0.79800
Cd1258     Cd  0.54521878  0.52838884  0.48169055     1.59700
Cd1259     Cd  0.99422495  0.50212306  0.55994429     1.59600
O1260       O  0.57772528  0.54628810  0.53041967    -0.79800
O1261       O  0.99596619  0.50357339  0.49987468    -1.90300
Cd1262     Cd  0.97315424  0.95466927  0.47937592     1.59900
O1263       O  0.54382704  0.52857285  0.58430741    -0.79700
O1264       O  0.92936991  0.94285886  0.44644970    -0.78400
C1265       C  0.95605836  0.54266127  0.56214960     0.84100
C1266       C  0.53714637  0.58326554  0.43613091     0.83800
O1267       O  0.93024367  0.99256689  0.44816621    -0.77300
C1268       C  0.53943489  0.96575558  0.43701906     0.84600
O1269       O  0.95607640  0.54459469  0.52413591    -0.77400
C1270       C  0.57384998  0.54454704  0.56831902     0.84700
C1271       C  0.95726435  0.92147222  0.56407180     0.85100
O1272       O  0.97014960  0.95050135  0.58203880    -0.79900
C1273       C  0.60142619  0.67717196  0.09395812    -0.13200
C1274       C  0.58797362  0.67650925  0.13191994     0.17100
C1275       C  0.55917784  0.64563459  0.14599720     0.03400
C1276       C  0.54467920  0.61579346  0.12241027    -0.11700
C1277       C  0.55779598  0.61619208  0.08413369    -0.02800
C1278       C  0.58657577  0.64750710  0.06986355     0.02700
C1279       C  0.60351715  0.70860977  0.15584347     0.09500
N1280       N  0.54397325  0.64432637  0.18392848     0.65900
H1281       H  0.52239063  0.59229782  0.13388927     0.18800
N1282       N  0.60148345  0.64961461  0.03142141     0.76400
H1283       H  0.62351623  0.70102256  0.08283461     0.10300
C1284       C  0.63153051  0.71785425  0.18185216     0.04000
C1285       C  0.64540105  0.74848151  0.20433251    -0.04700
C1286       C  0.63193155  0.77046173  0.20074007    -0.23100
C1287       C  0.60464325  0.76152293  0.17324331     0.13200
C1288       C  0.59054571  0.73062206  0.15155793    -0.12300
N1289       N  0.64632848  0.69653241  0.18512582     0.64900
H1290       H  0.66666324  0.75511400  0.22468279     0.12800
N1291       N  0.58930407  0.78219189  0.16828634     0.61600
H1292       H  0.56923624  0.72372913  0.13115282     0.08900
O1293       O  0.62863411  0.64806680  0.02895717    -0.39900
O1294       O  0.59254673  0.66085497  0.00201123    -0.39100
O1295       O  0.01867435  0.64902446  0.18557979    -0.39100
O1296       O  0.54983891  0.63029472  0.21311378    -0.36800
O1297       O  0.55748629  0.76857160  0.17615323    -0.37700
O1298       O  0.60292490  0.80711234  0.14387949    -0.33800
O1299       O  0.66950483  0.70056680  0.16067245    -0.35200
O1300       O  0.63185638  0.66986030  0.20691284    -0.39500
C1301       C  0.85138428  0.92263678  0.15010705    -0.13200
C1302       C  0.82102457  0.91636698  0.13073701     0.17100
C1303       C  0.82261533  0.92546251  0.09015960     0.03400
C1304       C  0.85418918  0.94024175  0.06961666    -0.11700
C1305       C  0.88493104  0.94692831  0.08878839    -0.02800
C1306       C  0.88320836  0.93784533  0.12969918     0.02700
C1307       C  0.78848122  0.90212908  0.15408469     0.09500
N1308       N  0.79286177  0.92163972  0.06989496     0.65900
H1309       H  0.85442699  0.45034445  0.03803203     0.18800
N1310       N  0.91320326  0.94338846  0.15096388     0.76400
H1311       H  0.85038968  0.91587558  0.18145318     0.10300
C1312       C  0.76126246  0.86752129  0.14993628     0.04000
C1313       C  0.73160629  0.85484030  0.17386220    -0.04700
C1314       C  0.72839194  0.87600190  0.20215379    -0.23100
C1315       C  0.75530074  0.91100049  0.20552096     0.13200
C1316       C  0.78516291  0.92353556  0.18183644    -0.12300
N1317       N  0.76395583  0.84446397  0.12295128     0.64900
H1318       H  0.71135088  0.82786000  0.17114994     0.12800
N1319       N  0.75242394  0.93443891  0.23172788     0.61600
H1320       H  0.80582150  0.95032470  0.18480040     0.08900
O1321       O  0.91803864  0.91843948  0.15583996    -0.39900
O1322       O  0.92971430  0.97004075  0.17244493    -0.39100
O1323       O  0.78899320  0.45154893  0.06969992    -0.39100
O1324       O  0.77865414  0.89903057  0.04288181    -0.36800
O1325       O  0.73448449  0.94718557  0.22086043    -0.37700
O1326       O  0.77456806  0.94920617  0.25917397    -0.33800
O1327       O  0.77496609  0.82558427  0.13590179    -0.35200
O1328       O  0.74725131  0.83653157  0.09048683    -0.39500
C1329       C  0.57835611  0.87840257  0.18382755    -0.13200
C1330       C  0.60076013  0.90354354  0.15655837     0.17100
C1331       C  0.63553583  0.91223934  0.15443213     0.03400
C1332       C  0.64701573  0.89478961  0.17857125    -0.11700
C1333       C  0.62468208  0.86937492  0.20598217    -0.02800
C1334       C  0.58990336  0.86154967  0.20895971     0.02700
C1335       C  0.58729460  0.92111307  0.13179934     0.09500
N1336       N  0.65968716  0.93940034  0.12883441     0.65900
H1337       H  0.67394765  0.90176873  0.17649544     0.18800
N1338       N  0.56595575  0.83741420  0.23748342     0.76400
H1339       H  0.55162769  0.87210081  0.18596740     0.10300
C1340       C  0.57150106  0.90752694  0.09459197     0.04400
C1341       C  0.55631854  0.92309284  0.07337896    -0.04700
C1342       C  0.55571267  0.95171295  0.08904025    -0.23100
C1343       C  0.57143508  0.96510589  0.12666826     0.13200
C1344       C  0.58726243  0.94986670  0.14744717    -0.12300
N1345       N  0.56947042  0.87712092  0.07875229     0.64900
H1346       H  0.54405449  0.91203667  0.04484235     0.12800
N1347       N  0.57187115  0.99421419  0.14414214     0.61600
H1348       H  0.59898460  0.96009050  0.17645741     0.08900
O1349       O  0.55497676  0.84872059  0.26468855    -0.39900
O1350       O  0.54725805  0.80614395  0.22748126    -0.39100
O1351       O  0.67754367  0.96968314  0.14261216    -0.39100
O1352       O  0.66861281  0.93194108  0.09635369    -0.36800
O1353       O  0.54930875  0.98920029  0.17002369    -0.37700
O1354       O  0.59895216  0.02371959  0.14140633    -0.33800
O1355       O  0.54224476  0.84810633  0.08413694    -0.35200
O1356       O  0.59114960  0.88003573  0.05273998    -0.39500
C1357       C  0.63597087  0.73154253  0.34198494    -0.13200
C1358       C  0.60095779  0.70613753  0.33626223     0.17100
C1359       C  0.58116915  0.71235143  0.30842550     0.03400
C1360       C  0.59662038  0.74311534  0.28646712    -0.11700
C1361       C  0.63161238  0.76831198  0.29186942    -0.02800
C1362       C  0.65136925  0.76258853  0.32025092     0.02700
C1363       C  0.58481074  0.67447476  0.36145782     0.09500
N1364       N  0.54526127  0.68770751  0.30220818     0.65900
H1365       H  0.58100300  0.74756133  0.26529379     0.18800
N1366       N  0.68709646  0.78773657  0.32698130     0.76400
H1367       H  0.65129251  0.72753560  0.36403366     0.10300
C1368       C  0.59731232  0.65150711  0.36184642     0.04000
C1369       C  0.58151948  0.62217995  0.38648032    -0.04700
C1370       C  0.55331954  0.61508946  0.41118315    -0.23100
C1371       C  0.54146343  0.63867491  0.41153497     0.13200
C1372       C  0.55718454  0.66788684  0.38672690    -0.12300
N1373       N  0.62552988  0.65718642  0.33681770     0.64900
H1374       H  0.59118125  0.60451703  0.38579884     0.12800
N1375       N  0.51498001  0.63457386  0.43854716     0.61600
H1376       H  0.54823426  0.68611850  0.38794937     0.08900
O1377       O  0.69571168  0.80601462  0.35825531    -0.39900
O1378       O  0.71002242  0.78595890  0.30722310    -0.39100
O1379       O  0.52277962  0.69345536  0.31658128    -0.39100
O1380       O  0.53653878  0.66516077  0.27525339    -0.36800
O1381       O  0.52343795  0.64792997  0.47295131    -0.37700
O1382       O  0.48522182  0.62532033  0.42512318    -0.33800
O1383       O  0.61924647  0.64322817  0.30270713    -0.35200
O1384       O  0.65518370  0.66884681  0.35205453    -0.39500
C1385       C  0.76490508  0.90960042  0.35038736    -0.13200
C1386       C  0.79151376  0.90357745  0.33987761     0.17100
C1387       C  0.78662924  0.88204158  0.30683107     0.03400
C1388       C  0.75572586  0.86728396  0.28498248    -0.11700
C1389       C  0.72958858  0.87427637  0.29455087    -0.02800
C1390       C  0.73424881  0.89544589  0.32798393     0.02700
C1391       C  0.82344080  0.91859085  0.36471253     0.09500
N1392       N  0.81327546  0.87582435  0.29423972     0.65900
H1393       H  0.75229131  0.85038885  0.26005319     0.18800
N1394       N  0.70913909  0.90451939  0.33831039     0.76400
H1395       H  0.76793524  0.92550231  0.37622722     0.10300
C1396       C  0.84409593  0.95449374  0.37177737     0.04000
C1397       C  0.87386790  0.96753710  0.39553529    -0.04700
C1398       C  0.88360811  0.94549660  0.41323100    -0.23100
C1399       C  0.86203765  0.90934715  0.40736698     0.13200
C1400       C  0.83253460  0.89640953  0.38307538    -0.12300
N1401       N  0.83555071  0.97817541  0.35455416     0.64900
H1402       H  0.88876270  0.49529557  0.39968338     0.12800
N1403       N  0.86858453  0.88524108  0.42731749     0.61600
H1404       H  0.81606560  0.86861423  0.37929648     0.08900
O1405       O  0.71349901  0.93296644  0.32605475    -0.39900
O1406       O  0.68921137  0.88970427  0.36765530    -0.39100
O1407       O  0.80979049  0.84660404  0.30053438    -0.39100
O1408       O  0.83563691  0.89611162  0.26932204    -0.36800
O1409       O  0.85400538  0.87259109  0.46043815    -0.37700
O1410       O  0.88216519  0.87109527  0.40818105    -0.33800
O1411       O  0.81960150  0.48945488  0.37722845    -0.35200
O1412       O  0.84855178  0.99202939  0.32125766    -0.39500
C1413       C  0.58880707  0.86820299  0.34943375    -0.13200
C1414       C  0.60036797  0.90316061  0.34192978     0.17100
C1415       C  0.62661374  0.92136566  0.31329835     0.03400
C1416       C  0.63957161  0.90413391  0.29133381    -0.11700
C1417       C  0.62707804  0.86888564  0.29758403    -0.02800
C1418       C  0.60225866  0.85104070  0.32784934     0.02700
C1419       C  0.58517204  0.92033750  0.36469656     0.09500
N1420       N  0.63966172  0.95711868  0.30539345     0.65900
H1421       H  0.65935581  0.91834219  0.26884105     0.18800
N1422       N  0.58863313  0.81501223  0.33485931     0.76400
H1423       H  0.56892366  0.85408367  0.37185011     0.10300
C1424       C  0.55025437  0.91071486  0.35953382     0.04000
C1425       C  0.53591443  0.92565272  0.38350515    -0.04700
C1426       C  0.55597095  0.95074600  0.41239756    -0.23100
C1427       C  0.59124888  0.96082753  0.41694758     0.13200
C1428       C  0.60542070  0.94555061  0.39317238    -0.12300
N1429       N  0.52941742  0.88670109  0.32908397     0.64900
H1430       H  0.50899002  0.91796404  0.37894923     0.12800
N1431       N  0.61250470  0.48616428  0.44425846     0.61600
H1432       H  0.63225001  0.95283406  0.39763581     0.08900
O1433       O  0.60082842  0.80572744  0.36293661    -0.39900
O1434       O  0.56033855  0.79299703  0.31878998    -0.39100
O1435       O  0.66885460  0.97954150  0.31921467    -0.39100
O1436       O  0.62611436  0.96545527  0.27789654    -0.36800
O1437       O  0.61416399  0.47667216  0.47932427    -0.37700
O1438       O  0.63562989  0.51580243  0.43238267    -0.33800
O1439       O  0.00602375  0.85644480  0.33869927    -0.35200
O1440       O  0.52976919  0.89761929  0.29417997    -0.39500
C1441       C  0.87060127  0.60431744  0.85264789    -0.13200
C1442       C  0.90419633  0.61304696  0.84157017     0.17100
C1443       C  0.92103082  0.63702161  0.81028937     0.03400
C1444       C  0.90347702  0.65040427  0.78950867    -0.11700
C1445       C  0.86898702  0.63986352  0.79876737    -0.02800
C1446       C  0.85296939  0.61762022  0.83180556     0.02700
C1447       C  0.92022632  0.59554087  0.86210094     0.09500
N1448       N  0.95498258  0.64627148  0.79742083     0.65900
H1449       H  0.91655643  0.66831697  0.76500494     0.18800
N1450       N  0.81786852  0.60587638  0.84248157     0.76400
H1451       H  0.85751094  0.58609006  0.87689991     0.10300
C1452       C  0.94732283  0.61312139  0.88985243     0.04000
C1453       C  0.95994903  0.59508104  0.91097885    -0.04700
C1454       C  0.94556567  0.55927352  0.90583100    -0.23100
C1455       C  0.91873188  0.54174656  0.87744573     0.13200
C1456       C  0.90643023  0.56000001  0.85583252    -0.12300
N1457       N  0.96065922  0.64872692  0.89904044     0.64900
H1458       H  0.98031435  0.60907413  0.93284364     0.12800
N1459       N  0.90414288  0.50570479  0.86964047     0.61600
H1460       H  0.88560627  0.54625582  0.83440845     0.08900
O1461       O  0.81182376  0.61802941  0.87335091    -0.39900
O1462       O  0.79386951  0.57797982  0.82774281    -0.39100
O1463       O  0.95798499  0.62967447  0.76896624    -0.39100
O1464       O  0.98028440  0.67584163  0.80594115    -0.36800
O1465       O  0.87366422  0.98447444  0.89439146    -0.37700
O1466       O  0.90895038  0.99474084  0.84453914    -0.33800
O1467       O  0.94516052  0.65647381  0.92464734    -0.35200
O1468       O  0.99147339  0.67090045  0.88961336    -0.39500
C1469       C  0.87574216  0.79442034  0.80813406    -0.13200
C1470       C  0.90003725  0.79851995  0.83719405     0.17100
C1471       C  0.90777590  0.77214117  0.84214576     0.03400
C1472       C  0.89071084  0.74216155  0.81871468    -0.11700
C1473       C  0.86579581  0.73761842  0.79024920    -0.02800
C1474       C  0.85851258  0.76440925  0.78473675     0.02700
C1475       C  0.91490516  0.82944223  0.86354289     0.09500
N1476       N  0.93140988  0.77440901  0.87224103     0.65900
H1477       H  0.89674083  0.72197802  0.82316987     0.18800
N1478       N  0.83309349  0.76147990  0.75672581     0.76400
H1479       H  0.86947532  0.81448636  0.80422705     0.10300
C1480       C  0.95055135  0.85471434  0.86355121     0.04000
C1481       C  0.96310018  0.88362928  0.88863997    -0.04700
C1482       C  0.94060077  0.88888580  0.91273991    -0.23100
C1483       C  0.90473293  0.86389201  0.91192380     0.13200
C1484       C  0.89239023  0.83439469  0.88785108    -0.12300
N1485       N  0.97385787  0.85297333  0.83594521     0.64900
H1486       H  0.99057643  0.90295309  0.88785121     0.12800
N1487       N  0.88047871  0.86778978  0.93552101     0.61600
H1488       H  0.86483551  0.81528450  0.88780538     0.08900
O1489       O  0.84225075  0.78399037  0.72952861    -0.39900
O1490       O  0.80145722  0.74386117  0.76607215    -0.39100
O1491       O  0.92023126  0.76417248  0.90723149    -0.39100
O1492       O  0.95966391  0.77717013  0.86171403    -0.36800
O1493       O  0.86335872  0.87966893  0.91947268    -0.37700
O1494       O  0.87085676  0.85264640  0.96891774    -0.33800
O1495       O  0.47451501  0.86236653  0.80019509    -0.35200
O1496       O  0.99914699  0.85114963  0.84913804    -0.39500
C1497       C  0.72597158  0.62810028  0.85190683    -0.13200
C1498       C  0.70163010  0.59356301  0.84282390     0.17100
C1499       C  0.70878176  0.57674904  0.81216221     0.03400
C1500       C  0.73980790  0.59490338  0.79081158    -0.11700
C1501       C  0.76352178  0.63000332  0.79855697    -0.02800
C1502       C  0.75676038  0.64651144  0.83012067     0.02700
C1503       C  0.66789598  0.57700359  0.86354818     0.09500
N1504       N  0.68377181  0.54230389  0.80012947     0.65900
H1505       H  0.74488921  0.58175633  0.76700243     0.18800
N1506       N  0.77909769  0.68249872  0.83846208     0.76400
H1507       H  0.72043386  0.64124504  0.87530584     0.10300
C1508       C  0.65759339  0.54933537  0.89042141     0.04000
C1509       C  0.62629882  0.53610323  0.91120668    -0.04700
C1510       C  0.60535278  0.55061264  0.90654234    -0.23100
C1511       C  0.61568126  0.57818125  0.87920656     0.13200
C1512       C  0.64662919  0.59090051  0.85789080    -0.12300
N1513       N  0.67966316  0.53606229  0.89913969     0.64900
H1514       H  0.61919022  0.51535728  0.93252548     0.12800
N1515       N  0.59504527  0.59340379  0.87239086     0.61600
H1516       H  0.65444093  0.61220097  0.83716675     0.08900
O1517       O  0.80193808  0.69145164  0.86524819    -0.39900
O1518       O  0.76868428  0.70284736  0.82970733    -0.39100
O1519       O  0.66079787  0.53779044  0.77509168    -0.39100
O1520       O  0.69025241  0.51850415  0.80550501    -0.36800
O1521       O  0.60184768  0.12289774  0.88976423    -0.37700
O1522       O  0.57362690  0.08502022  0.84292963    -0.33800
O1523       O  0.70284857  0.55079664  0.92552422    -0.35200
O1524       O  0.67046375  0.50565497  0.88860393    -0.39500
C1525       C  0.87476726  0.58653239  0.68927416    -0.13200
C1526       C  0.90086098  0.60824691  0.66234413     0.17100
C1527       C  0.90899456  0.64278769  0.65799062     0.03400
C1528       C  0.89075092  0.65466797  0.68011455    -0.11700
C1529       C  0.86506218  0.63307197  0.70757394    -0.02800
C1530       C  0.85722338  0.59858190  0.71231386     0.02700
C1531       C  0.91694688  0.59333714  0.63684352     0.09500
N1532       N  0.93652110  0.66642853  0.63237144     0.65900
H1533       H  0.89745840  0.68139097  0.67671466     0.18800
N1534       N  0.83120975  0.57505612  0.73955898     0.76400
H1535       H  0.86726948  0.55954503  0.69184851     0.10300
C1536       C  0.93291118  0.57623222  0.65350998     0.04000
C1537       C  0.94514236  0.56002002  0.62856260    -0.04700
C1538       C  0.94177069  0.55997979  0.58676336    -0.23100
C1539       C  0.92574565  0.57719720  0.57001065     0.13200
C1540       C  0.91364673  0.59362928  0.59511378    -0.12300
N1541       N  0.93813816  0.57600528  0.69565378     0.64900
H1542       H  0.95759372  0.54740479  0.64241325     0.12800
N1543       N  0.92065169  0.57759273  0.52782964     0.61600
H1544       H  0.90060785  0.60590520  0.58186523     0.08900
O1545       O  0.84056386  0.56479068  0.76949140    -0.39900
O1546       O  0.80069136  0.55614223  0.72684232    -0.39100
O1547       O  0.92943530  0.67624695  0.60026393    -0.39100
O1548       O  0.96699344  0.68326576  0.64605008    -0.36800
O1549       O  0.89222439  0.55492999  0.51259576    -0.37700
O1550       O  0.94080777  0.60432413  0.50786627    -0.33800
O1551       O  0.96844694  0.59475410  0.70919759    -0.35200
O1552       O  0.91640268  0.55026644  0.71596612    -0.39500
C1553       C  0.86365445  0.76627404  0.64328789    -0.13200
C1554       C  0.89858181  0.79129450  0.65026717     0.17100
C1555       C  0.91681757  0.78551276  0.68052940     0.03400
C1556       C  0.89979197  0.75572772  0.70415106    -0.11700
C1557       C  0.86446148  0.73154541  0.69863407    -0.02800
C1558       C  0.84643637  0.73647597  0.66716960     0.02700
C1559       C  0.91466418  0.82458070  0.62826893     0.09500
N1560       N  0.95271572  0.80968886  0.68753075     0.65900
H1561       H  0.91419516  0.75167369  0.72738172     0.18800
N1562       N  0.81004431  0.71334711  0.66151939     0.76400
H1563       H  0.84923071  0.77072213  0.62044292     0.10300
C1564       C  0.91909810  0.82605928  0.58650960     0.04000
C1565       C  0.93274296  0.85770961  0.56651223    -0.04700
C1566       C  0.94232457  0.88855473  0.58729873    -0.23100
C1567       C  0.93771060  0.88688225  0.62938696     0.13200
C1568       C  0.92403353  0.85507504  0.64930317    -0.12300
N1569       N  0.91083217  0.79577815  0.56412326     0.64900
H1570       H  0.93618099  0.85801214  0.53433461     0.12800
N1571       N  0.94593439  0.91687487  0.65235938     0.61600
H1572       H  0.92008037  0.85405717  0.68145962     0.08900
O1573       O  0.79964720  0.69257166  0.63240450    -0.39900
O1574       O  0.78893246  0.71952987  0.67892906    -0.39100
O1575       O  0.96166253  0.82887584  0.71803743    -0.39100
O1576       O  0.97522221  0.80665511  0.66850206    -0.36800
O1577       O  0.92285066  0.92431948  0.65841876    -0.37700
O1578       O  0.97328446  0.93134439  0.67309358    -0.33800
O1579       O  0.88432306  0.78197115  0.54198018    -0.35200
O1580       O  0.93345614  0.78743569  0.55999740    -0.39500
C1581       C  0.72184290  0.59752403  0.65407537    -0.13200
C1582       C  0.70010029  0.61047499  0.66180036     0.17100
C1583       C  0.70841985  0.63434490  0.69316803     0.03400
C1584       C  0.73870712  0.64546293  0.71540756    -0.11700
C1585       C  0.76075282  0.63273511  0.70743229    -0.02800
C1586       C  0.75189013  0.60823256  0.67652474     0.02700
C1587       C  0.66769591  0.59653050  0.63851449     0.09500
N1588       N  0.68658714  0.64772548  0.70250740     0.65900
H1589       H  0.74525709  0.66451147  0.73892389     0.18800
N1590       N  0.77083381  0.59123759  0.66999235     0.76400
H1591       H  0.71481008  0.57796289  0.63106404     0.10300
C1592       C  0.66849949  0.60027685  0.59662647     0.04000
C1593       C  0.63767588  0.58349986  0.57479871    -0.04700
C1594       C  0.60552632  0.56215594  0.59369271    -0.23100
C1595       C  0.60487654  0.55825114  0.63585113     0.13200
C1596       C  0.63582717  0.57569351  0.65775769    -0.12300
N1597       N  0.70052681  0.62070803  0.57572343     0.64900
H1598       H  0.63918222  0.58708521  0.54257776     0.12800
N1599       N  0.57353728  0.53528683  0.65672610     0.61600
H1600       H  0.63514418  0.57172175  0.68989520     0.08900
O1601       O  0.79520557  0.60375705  0.64478355    -0.39900
O1602       O  0.75602026  0.55940221  0.67806928    -0.39100
O1603       O  0.66782822  0.63709564  0.73344852    -0.39100
O1604       O  0.69184818  0.67501702  0.68551454    -0.36800
O1605       O  0.56921978  0.00507866  0.66210796    -0.37700
O1606       O  0.55960873  0.04657066  0.67618354    -0.33800
O1607       O  0.71363833  0.60586423  0.55706660    -0.35200
O1608       O  0.71119666  0.65209439  0.56849635    -0.39500
loop_ 
_geom_bond_atom_site_label_1 
_geom_bond_atom_site_label_2 
_geom_bond_distance 
_geom_bond_site_symmetry_2 
_ccdc_geom_bond_type 
C1            H2   1.109       .  S
C1            C7   1.542       .  S
C1            C6   1.532       .  S
C1            C5   1.536       .  S
C3            H4   1.106       .  S
C3            C9   1.533       .  S
C3            C8   1.540       .  S
C3           C10   1.532       .  S
C5            C8   1.376       .  D
C5          C351   1.485       .  S
C6            C9   1.378       .  D
C6          C379   1.486       .  S
C7           C10   1.376       .  D
C7          C323   1.487       .  S
C8          C267   1.489       .  S
C9          C295   1.483       .  S
C10         C239   1.489       .  S
C11          H12   1.109       .  S
C11          C17   1.539       .  S
C11          C16   1.538       .  S
C11          C15   1.540       .  S
C13          H14   1.110       .  S
C13          C19   1.533       .  S
C13          C18   1.540       .  S
C13          C20   1.537       .  S
C15          C18   1.380       .  D
C15         C183   1.489       .  S
C16          C19   1.373       .  D
C16         C155   1.483       .  S
C17          C20   1.375       .  D
C17         C211   1.481       .  S
C18         C108   1.493       .  S
C19          C80   1.491       .  S
C20         C127   1.490       .  S
O21          C37   1.274       .  A
O21        Zn831   2.012       .  S
C22          O38   1.274       .  A
C22          O35   1.272       .  A
C22         C304   1.481       .  S
O23          C36   1.276       .  A
O23       Cd1236   2.090   1_455  S
O24          C42   1.273       .  A
O24         Cd33   2.060   1_554  S
O25          C39   1.277       .  A
O25        Cd431   2.095   1_545  S
O26          C37   1.276       .  A
O26         Cd29   2.083       .  S
Zn27         O40   2.008   1_556  S
Zn27        O825   2.012   1_455  S
Zn27        O440   2.008       .  S
Zn27       O1238   1.934   1_455  S
O28          C39   1.274       .  A
O28        Cd837   2.056       .  S
Cd29         O31   2.070   1_556  S
Cd29        O427   2.099       .  S
Cd29        O434   2.006       .  S
Cd30       O1229   2.085   1_545  S
Cd30        O436   2.098   1_545  S
Cd30        O847   2.081       .  S
Cd30         O32   2.015   1_554  S
O31          C41   1.277       .  A
O32       Zn1233   1.937   1_545  S
O32        Cd431   2.003   1_545  S
O32        Cd837   1.998       .  S
Cd33         O35   2.057       .  S
Cd33        O832   2.056   1_455  S
Cd33        O836   1.998   1_455  S
O34          C41   1.279       .  A
O34        Cd432   2.098       .  S
C36          O40   1.274       .  A
C36         C136   1.489       .  S
C37         C276   1.486       .  S
O38        Zn429   2.019   1_545  S
C39         C248   1.487       .  S
C41          C99   1.492       .  S
C42          O43   1.278       .  A
C42          C71   1.486       .  S
O43        Cd834   2.081   1_455  S
O44          C60   1.276       .  A
O44        Zn854   2.034   1_455  S
C45          O61   1.277       .  A
C45          O58   1.274       .  A
C45         C192   1.489       .  S
O46          C59   1.277       .  A
O46         Cd53   2.070       .  S
O47          C65   1.274       .  A
O47         Cd56   2.056       .  S
O48          C62   1.275       .  A
O48        Cd454   2.081       .  S
O49          C60   1.276       .  A
O49         Cd52   2.072       .  S
Zn50         O63   2.013       .  S
Zn50        O848   2.034       .  S
Zn50        O463   2.023   1_545  S
Zn50         O55   1.951       .  S
O51          C62   1.276       .  A
O51        Cd860   2.075   1_455  S
Cd52         O54   2.055       .  S
Cd52        O450   2.078   1_545  S
Cd52        O859   1.994   1_455  S
Cd53        O861   2.082       .  S
Cd53        O468   2.087   1_545  S
Cd53         O55   2.010       .  S
O54          C64   1.275       .  A
O55        Cd856   1.994       .  S
O55        Cd458   1.995   1_545  S
Cd56         O58   2.068       .  S
Cd56        O855   2.075       .  S
Cd56        O457   1.993       .  S
O57          C64   1.275       .  A
O57        Cd857   2.082   1_455  S
C59          O63   1.273       .  A
C59         C332   1.489       .  S
C60         C164   1.486       .  S
O61        Zn452   2.025       .  S
C62         C220   1.487       .  S
C64         C388   1.488       .  S
C65          O66   1.276       .  A
C65         C360   1.491       .  S
O66        Cd455   2.085       .  S
C67          C68   1.398       .  A
C67          C72   1.400       .  A
C67          H77   1.086       .  S
C68          C73   1.474       .  S
C68          C69   1.406       .  A
C69          C70   1.398       .  A
C69          N74   1.427       .  S
C70          C71   1.405       .  A
C70          H75   1.085       .  S
C71          C72   1.419       .  A
C72          N76   1.429       .  S
C73          C78   1.405       .  A
C73          C82   1.394       .  A
N74          O90   1.262       .  A
N74         O893   1.262       .  A
N76          O87   1.262       .  A
N76          O88   1.262       .  A
C78          C79   1.405       .  A
C78          N83   1.428       .  S
C79          C80   1.408       .  A
C79          H84   1.082       .  S
C80          C81   1.412       .  A
C81          C82   1.398       .  A
C81          N85   1.425       .  S
C82          H86   1.083       .  S
N83          O93   1.262       .  A
N83          O94   1.262       .  A
N85          O91   1.261       .  A
N85          O92   1.262       .  A
O89         N878   1.262       .  A
C95          C96   1.402       .  A
C95         C100   1.404       .  A
C95         H105   1.085       .  S
C96         C101   1.483       .  S
C96          C97   1.408       .  A
C97          C98   1.400       .  A
C97         N102   1.429       .  S
C98          C99   1.408       .  A
C98         H505   1.085       .  S
C99         C100   1.416       .  A
C100        N104   1.428       .  S
C101        C106   1.409       .  A
C101        C110   1.402       .  A
N102        O118   1.262       .  A
N102        O519   1.262       .  A
H103        C500   1.084       .  S
N104        O115   1.262       .  A
N104        O116   1.262       .  A
C106        C107   1.399       .  A
C106        N111   1.428       .  S
C107        C108   1.404       .  A
C107        H112   1.085       .  S
C108        C109   1.416       .  A
C109        C110   1.404       .  A
C109        N113   1.430       .  S
C110        H114   1.085       .  S
N111        O121   1.262       .  A
N111        O122   1.262       .  A
N113        O119   1.262       .  A
N113        O120   1.262       .  A
O117        N504   1.262       .  A
C123        C124   1.397       .  A
C123        C128   1.399       .  A
C123        H133   1.086       .  S
C124        C129   1.475       .  S
C124        C125   1.406       .  A
C125        C126   1.399       .  A
C125        N130   1.428       .  S
C126        C127   1.405       .  A
C126        H131   1.086       .  S
C127        C128   1.419       .  A
C128        N132   1.429       .  S
C129        C134   1.406       .  A
C129        C138   1.400       .  A
N130        O145   1.262       .  A
N130        O146   1.261       .  A
N132        O143   1.261       .  A
N132        O144   1.259       .  A
C134        C135   1.398       .  A
C134        N139   1.429       .  S
C135        C136   1.408       .  A
C135        H140   1.086       .  S
C136        C137   1.417       .  A
C137        C138   1.402       .  A
C137        N141   1.428       .  S
C138        H142   1.087       .  S
N139        O149   1.262       .  A
N139        O150   1.262       .  A
N141        O147   1.262       .  A
N141        O148   1.262       .  A
C151        C152   1.405       .  A
C151        C156   1.403       .  A
C151        H161   1.085       .  S
C152        C157   1.485       .  S
C152        C153   1.411       .  A
C153        C154   1.397       .  A
C153        N158   1.427       .  S
C154        C155   1.400       .  A
C154        H159   1.086       .  S
C155        C156   1.411       .  A
C156        N160   1.429       .  S
C157        C162   1.410       .  A
C157        C166   1.402       .  A
N158        O173   1.262       .  A
N158        O174   1.261       .  A
N160        O171   1.262       .  A
N160        O172   1.262       .  A
C162        C163   1.401       .  A
C162        N167   1.429       .  S
C163        C164   1.406       .  A
C163        H168   1.087       .  S
C164        C165   1.415       .  A
C165        C166   1.401       .  A
C165        N169   1.429       .  S
C166        H170   1.087       .  S
N167        O177   1.262       .  A
N167        O178   1.262       .  A
N169        O175   1.262       .  A
N169        O176   1.262   1_455  A
C179        C180   1.402       .  A
C179        C184   1.401       .  A
C179        H189   1.085       .  S
C180        C185   1.485       .  S
C180        C181   1.411       .  A
C181        C182   1.398       .  A
C181        N186   1.428       .  S
C182        C183   1.403       .  A
C182        H187   1.085       .  S
C183        C184   1.414       .  A
C184        N188   1.428       .  S
C185        C190   1.411       .  A
C185        C194   1.401       .  A
N186        O201   1.262       .  A
N186        O202   1.262       .  A
N188        O199   1.262       .  A
N188        O200   1.262       .  A
C190        C191   1.399       .  A
C190        N195   1.429       .  S
C191        C192   1.406       .  A
C191        H598   1.086       .  S
C192        C193   1.418       .  A
C193        C194   1.401       .  A
C193        N197   1.429       .  S
C194        H198   1.086       .  S
N195        O206   1.262       .  A
N195        O607   1.262       .  A
H196        C593   1.086       .  S
N197        O203   1.262       .  A
N197        O204   1.262       .  A
O205        N597   1.262       .  A
C207        C208   1.405       .  A
C207        C212   1.404       .  A
C207        H217   1.085       .  S
C208        C213   1.482       .  S
C208        C209   1.409       .  A
C209        C210   1.396       .  A
C209        N214   1.428       .  S
C210        C211   1.401       .  A
C210        H215   1.085       .  S
C211        C212   1.410       .  A
C212        N216   1.429       .  S
C213        C218   1.409       .  A
C213        C222   1.400       .  A
N214        O229   1.262       .  A
N214        O230   1.262       .  A
N216        O227   1.262       .  A
N216        O228   1.262       .  A
C218        C219   1.400       .  A
C218        N223   1.429       .  S
C219        C220   1.406       .  A
C219        H224   1.085       .  S
C220        C221   1.416       .  A
C221        C222   1.401       .  A
C221        N627   1.428       .  S
C222        H226   1.086       .  S
N223        O234   1.262       .  A
N223       O1037   1.262       .  A
N225        C623   1.429       .  S
N225        O231   1.262       .  A
N225        O232   1.262   1_565  A
O233       N1027   1.262       .  A
C235        C236   1.401       .  A
C235        C240   1.401       .  A
C235        H245   1.086       .  S
C236        C241   1.483       .  S
C236        C237   1.410       .  A
C237        C238   1.399       .  A
C237        N242   1.427       .  S
C238        C239   1.403       .  A
C238        H243   1.086       .  S
C239        C240   1.413       .  A
C240        N244   1.429       .  S
C241        C246   1.407       .  A
C241        C250   1.404       .  A
N242        O257   1.260       .  A
N242        O258   1.261       .  A
N244        O255   1.262       .  A
N244        O256   1.262       .  A
C246        C247   1.399       .  A
C246        N251   1.429       .  S
C247        C248   1.407       .  A
C247        H252   1.084       .  S
C248        C249   1.414       .  A
C249        C250   1.404       .  A
C249        N253   1.429       .  S
C250        H254   1.084       .  S
N251        O261   1.262       .  A
N251        O262   1.262       .  A
N253        O661   1.262   1_545  A
N253        O662   1.262   1_545  A
O259        N655   1.262       .  A
O260        N655   1.262       .  A
C263        C264   1.401       .  A
C263        C268   1.400       .  A
C263        H273   1.086       .  S
C264        C269   1.484       .  S
C264        C265   1.411       .  A
C265        C266   1.400       .  A
C265        N270   1.428       .  S
C266        C267   1.402       .  A
C266        H271   1.086       .  S
C267        C268   1.417       .  A
C268        N272   1.430       .  S
C269        C274   1.409       .  A
C269        C278   1.403       .  A
N270        O285   1.262       .  A
N270        O286   1.262       .  A
N272        O283   1.262       .  A
N272        O284   1.261       .  A
C274        C275   1.401       .  A
C274        N279   1.429       .  S
C275        C276   1.407       .  A
C275        H280   1.086       .  S
C276        C277   1.414       .  A
C277        C278   1.401       .  A
C277        N281   1.429       .  S
C278        H282   1.086       .  S
N279        O290   1.262       .  A
N279       O1093   1.262       .  A
N281        O287   1.262       .  A
N281        O288   1.262       .  A
O289       N1083   1.262       .  A
C291        C292   1.400       .  A
C291        C296   1.398       .  A
C291        H301   1.085       .  S
C292        C297   1.474       .  S
C292        C293   1.407       .  A
C293        C294   1.395       .  A
C293        N298   1.428       .  S
C294        C295   1.404       .  A
C294        H299   1.085       .  S
C295        C296   1.412       .  A
C296        N300   1.429       .  S
C297        C302   1.407       .  A
C297        C306   1.400       .  A
N298        O313   1.262       .  A
N298        O314   1.262       .  A
N300        O311   1.262       .  A
N300        O312   1.261       .  A
C302        C303   1.399       .  A
C302        N307   1.429       .  S
C303        C304   1.406       .  A
C303        H308   1.084       .  S
C304        C305   1.415       .  A
C305        C306   1.398       .  A
C305        N309   1.429       .  S
C306        H310   1.084       .  S
N307        O317   1.262       .  A
N307        O318   1.262       .  A
N309        O717   1.262       .  A
N309        O718   1.262       .  A
O315        N711   1.262       .  A
O316        N711   1.262       .  A
C319        C320   1.401       .  A
C319        C324   1.399       .  A
C319        H329   1.085       .  S
C320        C325   1.485       .  S
C320        C321   1.412       .  A
C321        C322   1.399       .  A
C321        N326   1.429       .  S
C322        C323   1.401       .  A
C322        H327   1.087       .  S
C323        C324   1.416       .  A
C324        N328   1.429       .  S
C325        C330   1.412       .  A
C325        C334   1.402       .  A
N326        O341   1.262       .  A
N326        O342   1.262       .  A
N328        O339   1.261       .  A
N328        O340   1.260       .  A
C330        C331   1.398       .  A
C330        N335   1.428       .  S
C331        C332   1.405       .  A
C331        H336   1.086       .  S
C332        C333   1.418       .  A
C333        C334   1.400       .  A
C333        N337   1.429       .  S
C334        H338   1.086       .  S
N335        O345   1.261       .  A
N335        O346   1.262       .  A
N337        O343   1.262       .  A
N337        O344   1.262       .  A
C347        C348   1.403       .  A
C347        C352   1.401       .  A
C347        H357   1.085       .  S
C348        C353   1.482       .  S
C348        C349   1.409       .  A
C349        C350   1.398       .  A
C349        N354   1.428       .  S
C350        C351   1.402       .  A
C350        H355   1.085       .  S
C351        C352   1.413       .  A
C352        N356   1.429       .  S
C353        C358   1.407       .  A
C353        C362   1.403       .  A
N354        O369   1.262       .  A
N354        O370   1.261       .  A
N356        O367   1.262       .  A
N356        O368   1.262       .  A
C358        C359   1.397       .  A
C358        N363   1.429       .  S
C359        C360   1.409       .  A
C359        H364   1.086       .  S
C360        C361   1.417       .  A
C361        C362   1.402       .  A
C361        N365   1.429       .  S
C362        H366   1.086       .  S
N363        O373   1.262       .  A
N363        O374   1.262       .  A
N365        O371   1.262       .  A
N365        O372   1.262       .  A
C375        C376   1.398       .  A
C375        C380   1.397       .  A
C375        H385   1.088       .  S
C376        C381   1.476       .  S
C376        C377   1.407       .  A
C377        C378   1.398       .  A
C377        N382   1.428       .  S
C378        C379   1.405       .  A
C378        H383   1.087       .  S
C379        C380   1.412       .  A
C380        N384   1.427       .  S
C381        C386   1.406       .  A
C381        C390   1.401       .  A
N382        O397   1.262       .  A
N382        O398   1.262       .  A
N384        O395   1.262       .  A
N384        O396   1.261       .  A
C386        C387   1.395       .  A
C386        N391   1.429       .  S
C387        C388   1.408       .  A
C387        H392   1.085       .  S
C388        C389   1.417       .  A
C389        C390   1.402       .  A
C389        N393   1.429       .  S
C390        H394   1.086       .  S
N391        O401   1.262       .  A
N391        O402   1.262       .  A
N393        O801   1.262       .  A
N393        O802   1.262       .  A
O399        N795   1.262       .  A
O400        N795   1.262       .  A
C403        H404   1.109       .  S
C403        C409   1.541       .  S
C403        C408   1.532       .  S
C403        C407   1.535       .  S
C405        H406   1.106       .  S
C405        C411   1.533       .  S
C405        C410   1.542       .  S
C405        C412   1.534       .  S
C407        C410   1.375       .  D
C407        C753   1.484       .  S
C408        C411   1.378       .  D
C408        C781   1.485       .  S
C409        C412   1.375       .  D
C409        C725   1.486       .  S
C410        C669   1.491       .  S
C411        C697   1.482       .  S
C412        C641   1.490       .  S
C413        H414   1.109       .  S
C413        C419   1.538       .  S
C413        C418   1.539       .  S
C413        C417   1.538       .  S
C415        H416   1.109       .  S
C415        C421   1.533       .  S
C415        C420   1.539       .  S
C415        C422   1.538       .  S
C417        C420   1.378       .  D
C417        C585   1.489       .  S
C418        C421   1.375       .  D
C418        C557   1.482       .  S
C419        C422   1.376       .  D
C419        C613   1.482       .  S
C420        C510   1.490       .  S
C421        C482   1.495       .  S
C422        C529   1.490       .  S
O423        C439   1.275       .  A
O423      Zn1233   2.021       .  S
C424        O440   1.273       .  A
C424        O437   1.271       .  A
C424        C706   1.479       .  S
O425        C438   1.276       .  A
O425       Cd834   2.085   1_465  S
O426        C444   1.273       .  A
O426       Cd435   2.063   1_554  S
O427        C441   1.278       .  A
O428        C439   1.275       .  A
O428       Cd431   2.080       .  S
Zn429      O1227   2.021   1_455  S
Zn429       O442   2.014   1_556  S
Zn429       O836   1.937   1_465  S
O430        C441   1.274       .  A
O430      Cd1239   2.056       .  S
Cd431       O433   2.065   1_556  S
Cd432       O827   2.090       .  S
Cd432      O1249   2.083       .  S
Cd432       O434   2.013   1_554  S
O433        C443   1.277       .  A
O434       Zn831   1.934       .  S
O434      Cd1239   1.999       .  S
Cd435      O1234   2.056   1_455  S
Cd435       O437   2.057       .  S
Cd435      O1238   1.999   1_455  S
O436        C443   1.279       .  A
C438        O442   1.275       .  A
C438        C538   1.485       .  S
C439        C678   1.487       .  S
C441        C650   1.487       .  S
C443        C501   1.492       .  S
C444        O445   1.278       .  A
C444        C473   1.486       .  S
O445      Cd1236   2.083   1_455  S
O446        C462   1.275       .  A
O446      Zn1256   2.030   1_455  S
C447        O463   1.277       .  A
C447        O460   1.274       .  A
C447        C594   1.489       .  S
O448        C461   1.277       .  A
O448       Cd455   2.070       .  S
O449        C467   1.275       .  A
O449       Cd458   2.062       .  S
O450        C464   1.275       .  A
O451        C462   1.276       .  A
O451       Cd454   2.071       .  S
Zn452      O1250   2.030       .  S
Zn452       O465   2.015       .  S
Zn452       O457   1.952       .  S
O453        C464   1.277       .  A
O453      Cd1262   2.079   1_455  S
Cd454       O456   2.055       .  S
Cd454      O1261   1.994   1_455  S
Cd455      O1263   2.079       .  S
Cd455       O457   2.007       .  S
O456        C466   1.275       .  A
O457      Cd1258   1.994       .  S
Cd458      O1257   2.079       .  S
Cd458       O460   2.072       .  S
O459        C466   1.275       .  A
O459      Cd1259   2.079   1_455  S
C461        O465   1.272       .  A
C461        C734   1.489       .  S
C462        C566   1.485       .  S
C464        C622   1.486       .  S
C466        C790   1.488       .  S
C467        O468   1.276       .  A
C467        C762   1.492       .  S
C469        C470   1.399       .  A
C469        C474   1.402       .  A
C469        H479   1.086       .  S
C470        C475   1.477       .  S
C470        C471   1.406       .  A
C471        C472   1.398       .  A
C471        N476   1.427       .  S
C472        C473   1.404       .  A
C472        H477   1.086       .  S
C473        C474   1.419       .  A
C474        N478   1.429       .  S
C475        C480   1.406       .  A
C475        C484   1.394       .  A
N476       O1295   1.262       .  A
N476        O492   1.261       .  A
N478        O489   1.262       .  A
N478        O490   1.262       .  A
C480        C481   1.405       .  A
C480        N485   1.428       .  S
C481        C482   1.409       .  A
C481        H486   1.082       .  S
C482        C483   1.415       .  A
C483        C484   1.400       .  A
C483        N487   1.427       .  S
C484        H488   1.083       .  S
N485        O495   1.262       .  A
N485        O496   1.262       .  A
N487        O493   1.261       .  A
N487        O494   1.262       .  A
O491       N1280   1.262       .  A
C497        C498   1.402       .  A
C497        C502   1.404       .  A
C497        H507   1.085       .  S
C498        C503   1.481       .  S
C498        C499   1.407       .  A
C499        C500   1.399       .  A
C499        N504   1.429       .  S
C500        C501   1.409       .  A
C501        C502   1.417       .  A
C502        N506   1.428       .  S
C503        C508   1.409       .  A
C503        C512   1.401       .  A
N504        O520   1.262       .  A
N506        O517   1.262       .  A
N506        O518   1.262       .  A
C508        C509   1.400       .  A
C508        N513   1.428       .  S
C509        C510   1.403       .  A
C509        H514   1.085       .  S
C510        C511   1.414       .  A
C511        C512   1.403       .  A
C511        N515   1.429       .  S
C512        H516   1.084       .  S
N513        O523   1.262       .  A
N513        O524   1.262       .  A
N515        O521   1.262       .  A
N515        O522   1.262       .  A
C525        C526   1.397       .  A
C525        C530   1.399       .  A
C525        H535   1.086       .  S
C526        C531   1.474       .  S
C526        C527   1.405       .  A
C527        C528   1.398       .  A
C527        N532   1.428       .  S
C528        C529   1.405       .  A
C528        H533   1.086       .  S
C529        C530   1.419       .  A
C530        N534   1.429       .  S
C531        C536   1.406       .  A
C531        C540   1.399       .  A
N532        O547   1.262       .  A
N532        O548   1.262       .  A
N534        O545   1.261       .  A
N534        O546   1.259       .  A
C536        C537   1.398       .  A
C536        N541   1.429       .  S
C537        C538   1.407       .  A
C537        H542   1.086       .  S
C538        C539   1.416       .  A
C539        C540   1.402       .  A
C539        N543   1.428       .  S
C540        H544   1.086       .  S
N541        O551   1.262       .  A
N541        O552   1.262       .  A
N543        O549   1.262       .  A
N543        O550   1.262   1_565  A
C553        C554   1.404       .  A
C553        C558   1.402       .  A
C553        H563   1.085       .  S
C554        C559   1.484       .  S
C554        C555   1.411       .  A
C555        C556   1.397       .  A
C555        N560   1.428       .  S
C556        C557   1.399       .  A
C556        H561   1.086       .  S
C557        C558   1.411       .  A
C558        N562   1.429       .  S
C559        C564   1.411       .  A
C559        C568   1.402       .  A
N560        O575   1.262       .  A
N560        O576   1.260       .  A
N562        O573   1.262       .  A
N562        O574   1.262       .  A
C564        C565   1.400       .  A
C564        N569   1.429       .  S
C565        C566   1.405       .  A
C565        H570   1.087       .  S
C566        C567   1.415       .  A
C567        C568   1.400       .  A
C567        N571   1.429       .  S
C568        H572   1.087       .  S
N569        O579   1.262       .  A
N569        O580   1.262       .  A
N571        O577   1.262       .  A
N571        O578   1.262   1_455  A
C581        C582   1.402       .  A
C581        C586   1.401       .  A
C581        H591   1.085       .  S
C582        C587   1.486       .  S
C582        C583   1.411       .  A
C583        C584   1.398       .  A
C583        N588   1.428       .  S
C584        C585   1.403       .  A
C584        H589   1.085       .  S
C585        C586   1.413       .  A
C586        N590   1.428       .  S
C587        C592   1.411       .  A
C587        C596   1.402       .  A
N588        O603   1.262       .  A
N588        O604   1.262       .  A
N590        O601   1.262       .  A
N590        O602   1.262       .  A
C592        C593   1.399       .  A
C592        N597   1.429       .  S
C593        C594   1.406       .  A
C594        C595   1.417       .  A
C595        C596   1.401       .  A
C595        N599   1.429       .  S
C596        H600   1.086       .  S
N597        O608   1.262       .  A
N599        O605   1.262       .  A
N599        O606   1.262       .  A
C609        C610   1.405       .  A
C609        C614   1.403       .  A
C609        H619   1.086       .  S
C610        C615   1.481       .  S
C610        C611   1.408       .  A
C611        C612   1.397       .  A
C611        N616   1.428       .  S
C612        C613   1.402       .  A
C612        H617   1.086       .  S
C613        C614   1.410       .  A
C614        N618   1.430       .  S
C615        C620   1.408       .  A
C615        C624   1.400       .  A
N616        O631   1.262       .  A
N616        O632   1.262       .  A
N618        O629   1.262       .  A
N618        O630   1.262       .  A
C620        C621   1.400       .  A
C620        N625   1.429       .  S
C621        C622   1.405       .  A
C621        H626   1.085       .  S
C622        C623   1.416       .  A
C623        C624   1.402       .  A
C624        H628   1.086       .  S
N625       O1439   1.262       .  A
N625        O636   1.262       .  A
N627        O633   1.262       .  A
N627        O634   1.262       .  A
O635       N1429   1.262       .  A
C637        C638   1.401       .  A
C637        C642   1.401       .  A
C637        H647   1.086       .  S
C638        C643   1.483       .  S
C638        C639   1.410       .  A
C639        C640   1.400       .  A
C639        N644   1.427       .  S
C640        C641   1.403       .  A
C640        H645   1.085       .  S
C641        C642   1.413       .  A
C642        N646   1.428       .  S
C643        C648   1.407       .  A
C643        C652   1.405       .  A
N644        O659   1.260       .  A
N644        O660   1.261       .  A
N646        O657   1.262       .  A
N646        O658   1.262       .  A
C648        C649   1.399       .  A
C648        N653   1.428       .  S
C649        C650   1.407       .  A
C649        H654   1.084       .  S
C650        C651   1.414       .  A
C651        C652   1.405       .  A
C651        N655   1.429       .  S
C652        H656   1.084       .  S
N653        O663   1.262       .  A
N653        O664   1.262       .  A
C665        C666   1.401       .  A
C665        C670   1.401       .  A
C665        H675   1.086       .  S
C666        C671   1.486       .  S
C666        C667   1.411       .  A
C667        C668   1.401       .  A
C667        N672   1.428       .  S
C668        C669   1.402       .  A
C668        H673   1.086       .  S
C669        C670   1.418       .  A
C670        N674   1.430       .  S
C671        C676   1.410       .  A
C671        C680   1.403       .  A
N672        O687   1.262       .  A
N672        O688   1.262       .  A
N674        O685   1.262       .  A
N674        O686   1.260       .  A
C676        C677   1.402       .  A
C676        N681   1.429       .  S
C677        C678   1.406       .  A
C677        H682   1.085       .  S
C678        C679   1.414       .  A
C679        C680   1.402       .  A
C679        N683   1.429       .  S
C680        H684   1.086       .  S
N681       O1495   1.262       .  A
N681        O692   1.262       .  A
N683        O689   1.262       .  A
N683        O690   1.262       .  A
O691       N1485   1.262       .  A
C693        C694   1.400       .  A
C693        C698   1.397       .  A
C693        H703   1.085       .  S
C694        C699   1.474       .  S
C694        C695   1.407       .  A
C695        C696   1.396       .  A
C695        N700   1.428       .  S
C696        C697   1.404       .  A
C696        H701   1.085       .  S
C697        C698   1.412       .  A
C698        N702   1.429       .  S
C699        C704   1.407       .  A
C699        C708   1.401       .  A
N700        O715   1.262       .  A
N700        O716   1.262       .  A
N702        O713   1.262       .  A
N702        O714   1.261       .  A
C704        C705   1.398       .  A
C704        N709   1.429       .  S
C705        C706   1.406       .  A
C705        H710   1.084       .  S
C706        C707   1.413       .  A
C707        C708   1.397       .  A
C707        N711   1.429       .  S
C708        H712   1.085       .  S
N709        O719   1.262       .  A
N709        O720   1.262       .  A
C721        C722   1.400       .  A
C721        C726   1.398       .  A
C721        H731   1.086       .  S
C722        C727   1.485       .  S
C722        C723   1.412       .  A
C723        C724   1.401       .  A
C723        N728   1.428       .  S
C724        C725   1.401       .  A
C724        H729   1.087       .  S
C725        C726   1.415       .  A
C726        N730   1.429       .  S
C727        C732   1.411       .  A
C727        C736   1.402       .  A
N728        O743   1.262       .  A
N728        O744   1.262       .  A
N730        O741   1.261       .  A
N730        O742   1.260       .  A
C732        C733   1.396       .  A
C732        N737   1.428       .  S
C733        C734   1.404       .  A
C733        H738   1.086       .  S
C734        C735   1.419       .  A
C735        C736   1.402       .  A
C735        N739   1.429       .  S
C736        H740   1.087       .  S
N737        O747   1.261       .  A
N737        O748   1.262       .  A
N739        O745   1.262       .  A
N739        O746   1.262       .  A
C749        C750   1.403       .  A
C749        C754   1.403       .  A
C749        H759   1.085       .  S
C750        C755   1.482       .  S
C750        C751   1.408       .  A
C751        C752   1.397       .  A
C751        N756   1.427       .  S
C752        C753   1.401       .  A
C752        H757   1.085       .  S
C753        C754   1.413       .  A
C754        N758   1.430       .  S
C755        C760   1.406       .  A
C755        C764   1.402       .  A
N756        O771   1.261       .  A
N756        O772   1.262       .  A
N758        O769   1.262       .  A
N758        O770   1.262       .  A
C760        C761   1.398       .  A
C760        N765   1.429       .  S
C761        C762   1.409       .  A
C761        H766   1.085       .  S
C762        C763   1.417       .  A
C763        C764   1.403       .  A
C763        N767   1.429       .  S
C764        H768   1.086       .  S
N765        O775   1.262       .  A
N765        O776   1.262       .  A
N767        O773   1.262       .  A
N767        O774   1.262       .  A
C777        C778   1.398       .  A
C777        C782   1.397       .  A
C777        H787   1.087       .  S
C778        C783   1.477       .  S
C778        C779   1.408       .  A
C779        C780   1.399       .  A
C779        N784   1.428       .  S
C780        C781   1.404       .  A
C780        H785   1.087       .  S
C781        C782   1.412       .  A
C782        N786   1.427       .  S
C783        C788   1.407       .  A
C783        C792   1.401       .  A
N784        O799   1.262       .  A
N784        O800   1.262       .  A
N786        O797   1.262       .  A
N786        O798   1.262       .  A
C788        C789   1.395       .  A
C788        N793   1.429       .  S
C789        C790   1.408       .  A
C789        H794   1.085       .  S
C790        C791   1.417       .  A
C791        C792   1.402       .  A
C791        N795   1.429       .  S
C792        H796   1.086       .  S
N793        O803   1.262       .  A
N793        O804   1.262       .  A
C805        H806   1.109       .  S
C805        C811   1.542       .  S
C805        C810   1.532       .  S
C805        C809   1.536       .  S
C807        H808   1.106       .  S
C807        C813   1.533       .  S
C807        C812   1.540       .  S
C807        C814   1.532       .  S
C809        C812   1.376       .  D
C809       C1155   1.485       .  S
C810        C813   1.378       .  D
C810       C1183   1.486       .  S
C811        C814   1.376       .  D
C811       C1127   1.487       .  S
C812       C1071   1.489       .  S
C813       C1099   1.483       .  S
C814       C1043   1.489       .  S
C815        H816   1.109       .  S
C815        C821   1.539       .  S
C815        C820   1.538       .  S
C815        C819   1.540       .  S
C817        H818   1.110       .  S
C817        C823   1.533       .  S
C817        C822   1.540       .  S
C817        C824   1.537       .  S
C819        C822   1.380       .  D
C819        C987   1.489       .  S
C820        C823   1.373       .  D
C820        C959   1.483       .  S
C821        C824   1.375       .  D
C821       C1015   1.481       .  S
C822        C912   1.493       .  S
C823        C884   1.491       .  S
C824        C931   1.490       .  S
O825        C841   1.274       .  A
C826        O842   1.274       .  A
C826        O839   1.272       .  A
C826       C1108   1.481       .  S
O827        C840   1.276       .  A
O828        C846   1.273       .  A
O828       Cd837   2.060   1_554  S
O829        C843   1.277       .  A
O829      Cd1235   2.095   1_545  S
O830        C841   1.276       .  A
O830       Cd833   2.083       .  S
Zn831      O1244   2.008       .  S
Zn831       O844   2.008   1_556  S
O832        C843   1.274       .  A
Cd833      O1231   2.099       .  S
Cd833       O835   2.070   1_556  S
Cd833      O1238   2.006       .  S
Cd834      O1240   2.098   1_545  S
Cd834       O836   2.015   1_554  S
O835        C845   1.277       .  A
O836      Cd1235   2.003   1_545  S
Cd837       O839   2.057       .  S
O838        C845   1.279       .  A
O838      Cd1236   2.098       .  S
C840        O844   1.274       .  A
C840        C940   1.489       .  S
C841       C1080   1.486       .  S
O842      Zn1233   2.019   1_545  S
C843       C1052   1.487       .  S
C845        C903   1.492       .  S
C846        O847   1.278       .  A
C846        C875   1.486       .  S
O848        C864   1.276       .  A
C849        O865   1.277       .  A
C849        O862   1.274       .  A
C849        C996   1.489       .  S
O850        C863   1.277       .  A
O850       Cd857   2.070       .  S
O851        C869   1.274       .  A
O851       Cd860   2.056       .  S
O852        C866   1.275       .  A
O852      Cd1258   2.081       .  S
O853        C864   1.276       .  A
O853       Cd856   2.072       .  S
Zn854      O1267   2.023   1_545  S
Zn854       O867   2.013       .  S
Zn854       O859   1.951       .  S
O855        C866   1.276       .  A
Cd856      O1254   2.078   1_545  S
Cd856       O858   2.055       .  S
Cd857      O1272   2.087   1_545  S
Cd857       O859   2.010       .  S
O858        C868   1.275       .  A
O859      Cd1262   1.995   1_545  S
Cd860       O862   2.068       .  S
Cd860      O1261   1.993       .  S
O861        C868   1.275       .  A
C863        O867   1.273       .  A
C863       C1136   1.489       .  S
C864        C968   1.486       .  S
O865      Zn1256   2.025       .  S
C866       C1024   1.487       .  S
C868       C1192   1.488       .  S
C869        O870   1.276       .  A
C869       C1164   1.491       .  S
O870      Cd1259   2.085       .  S
C871        C872   1.398       .  A
C871        C876   1.400       .  A
C871        H881   1.086       .  S
C872        C877   1.474       .  S
C872        C873   1.406       .  A
C873        C874   1.398       .  A
C873        N878   1.427       .  S
C874        C875   1.405       .  A
C874        H879   1.085       .  S
C875        C876   1.419       .  A
C876        N880   1.429       .  S
C877        C882   1.405       .  A
C877        C886   1.394       .  A
N878        O894   1.262       .  A
N880        O891   1.262       .  A
N880        O892   1.262       .  A
C882        C883   1.405       .  A
C882        N887   1.428       .  S
C883        C884   1.408       .  A
C883        H888   1.082       .  S
C884        C885   1.412       .  A
C885        C886   1.398       .  A
C885        N889   1.425       .  S
C886        H890   1.083       .  S
N887        O897   1.262       .  A
N887        O898   1.262       .  A
N889        O895   1.261       .  A
N889        O896   1.262       .  A
C899        C900   1.402       .  A
C899        C904   1.404       .  A
C899        H909   1.085       .  S
C900        C905   1.483       .  S
C900        C901   1.408       .  A
C901        C902   1.400       .  A
C901        N906   1.429       .  S
C902        C903   1.408       .  A
C902       H1309   1.085       .  S
C903        C904   1.416       .  A
C904        N908   1.428       .  S
C905        C910   1.409       .  A
C905        C914   1.402       .  A
N906       O1323   1.262       .  A
N906        O922   1.262       .  A
H907       C1304   1.084       .  S
N908        O919   1.262       .  A
N908        O920   1.262       .  A
C910        C911   1.399       .  A
C910        N915   1.428       .  S
C911        C912   1.404       .  A
C911        H916   1.085       .  S
C912        C913   1.416       .  A
C913        C914   1.404       .  A
C913        N917   1.430       .  S
C914        H918   1.085       .  S
N915        O925   1.262       .  A
N915        O926   1.262       .  A
N917        O923   1.262       .  A
N917        O924   1.262       .  A
O921       N1308   1.262       .  A
C927        C928   1.397       .  A
C927        C932   1.399       .  A
C927        H937   1.086       .  S
C928        C933   1.475       .  S
C928        C929   1.406       .  A
C929        C930   1.399       .  A
C929        N934   1.428       .  S
C930        C931   1.405       .  A
C930        H935   1.086       .  S
C931        C932   1.419       .  A
C932        N936   1.429       .  S
C933        C938   1.406       .  A
C933        C942   1.400       .  A
N934        O949   1.262       .  A
N934        O950   1.261       .  A
N936        O947   1.261       .  A
N936        O948   1.259       .  A
C938        C939   1.398       .  A
C938        N943   1.429       .  S
C939        C940   1.408       .  A
C939        H944   1.086       .  S
C940        C941   1.417       .  A
C941        C942   1.402       .  A
C941        N945   1.428       .  S
C942        H946   1.087       .  S
N943        O953   1.262       .  A
N943        O954   1.262       .  A
N945        O951   1.262       .  A
N945        O952   1.262       .  A
C955        C956   1.405       .  A
C955        C960   1.403       .  A
C955        H965   1.085       .  S
C956        C961   1.485       .  S
C956        C957   1.411       .  A
C957        C958   1.397       .  A
C957        N962   1.427       .  S
C958        C959   1.400       .  A
C958        H963   1.086       .  S
C959        C960   1.411       .  A
C960        N964   1.429       .  S
C961        C966   1.410       .  A
C961        C970   1.402       .  A
N962        O977   1.262       .  A
N962        O978   1.261       .  A
N964        O975   1.262       .  A
N964        O976   1.262       .  A
C966        C967   1.401       .  A
C966        N971   1.429       .  S
C967        C968   1.406       .  A
C967        H972   1.087       .  S
C968        C969   1.415       .  A
C969        C970   1.401       .  A
C969        N973   1.429       .  S
C970        H974   1.087       .  S
N971        O981   1.262       .  A
N971        O982   1.262       .  A
N973        O979   1.262       .  A
N973        O980   1.262       .  A
C983        C984   1.402       .  A
C983        C988   1.401       .  A
C983        H993   1.085       .  S
C984        C989   1.485       .  S
C984        C985   1.411       .  A
C985        C986   1.398       .  A
C985        N990   1.428       .  S
C986        C987   1.403       .  A
C986        H991   1.085       .  S
C987        C988   1.414       .  A
C988        N992   1.428       .  S
C989        C994   1.411       .  A
C989        C998   1.401       .  A
N990       O1005   1.262       .  A
N990       O1006   1.262       .  A
N992       O1003   1.262       .  A
N992       O1004   1.262       .  A
C994        C995   1.399       .  A
C994        N999   1.429       .  S
C995        C996   1.406       .  A
C995       H1402   1.086       .  S
C996        C997   1.418       .  A
C997        C998   1.401       .  A
C997       N1001   1.429       .  S
C998       H1002   1.086       .  S
N999       O1411   1.262       .  A
N999       O1010   1.262       .  A
H1000      C1397   1.086       .  S
N1001      O1007   1.262       .  A
N1001      O1008   1.262       .  A
O1009      N1401   1.262       .  A
C1011      C1012   1.405       .  A
C1011      C1016   1.404       .  A
C1011      H1021   1.085       .  S
C1012      C1017   1.482       .  S
C1012      C1013   1.409       .  A
C1013      C1014   1.396       .  A
C1013      N1018   1.428       .  S
C1014      C1015   1.401       .  A
C1014      H1019   1.085       .  S
C1015      C1016   1.410       .  A
C1016      N1020   1.429       .  S
C1017      C1022   1.409       .  A
C1017      C1026   1.400       .  A
N1018      O1033   1.262       .  A
N1018      O1034   1.262       .  A
N1020      O1031   1.262       .  A
N1020      O1032   1.262       .  A
C1022      C1023   1.400       .  A
C1022      N1027   1.429       .  S
C1023      C1024   1.406       .  A
C1023      H1028   1.085       .  S
C1024      C1025   1.416       .  A
C1025      C1026   1.401       .  A
C1025      N1431   1.428       .  S
C1026      H1030   1.086       .  S
N1027      O1038   1.262       .  A
N1029      C1427   1.429       .  S
N1029      O1035   1.262       .  A
N1029      O1036   1.262   1_565  A
C1039      C1040   1.401       .  A
C1039      C1044   1.401       .  A
C1039      H1049   1.086       .  S
C1040      C1045   1.483       .  S
C1040      C1041   1.410       .  A
C1041      C1042   1.399       .  A
C1041      N1046   1.427       .  S
C1042      C1043   1.403       .  A
C1042      H1047   1.086       .  S
C1043      C1044   1.413       .  A
C1044      N1048   1.429       .  S
C1045      C1050   1.407       .  A
C1045      C1054   1.404       .  A
N1046      O1061   1.260       .  A
N1046      O1062   1.261       .  A
N1048      O1059   1.262       .  A
N1048      O1060   1.262       .  A
C1050      C1051   1.399       .  A
C1050      N1055   1.429       .  S
C1051      C1052   1.407       .  A
C1051      H1056   1.084       .  S
C1052      C1053   1.414       .  A
C1053      C1054   1.404       .  A
C1053      N1057   1.429       .  S
C1054      H1058   1.084       .  S
N1055      O1065   1.262       .  A
N1055      O1066   1.262       .  A
N1057      O1465   1.262   1_545  A
N1057      O1466   1.262   1_545  A
O1063      N1459   1.262       .  A
O1064      N1459   1.262       .  A
C1067      C1068   1.401       .  A
C1067      C1072   1.400       .  A
C1067      H1077   1.086       .  S
C1068      C1073   1.484       .  S
C1068      C1069   1.411       .  A
C1069      C1070   1.400       .  A
C1069      N1074   1.428       .  S
C1070      C1071   1.402       .  A
C1070      H1075   1.086       .  S
C1071      C1072   1.417       .  A
C1072      N1076   1.430       .  S
C1073      C1078   1.409       .  A
C1073      C1082   1.403       .  A
N1074      O1089   1.262       .  A
N1074      O1090   1.262       .  A
N1076      O1087   1.262       .  A
N1076      O1088   1.261       .  A
C1078      C1079   1.401       .  A
C1078      N1083   1.429       .  S
C1079      C1080   1.407       .  A
C1079      H1084   1.086       .  S
C1080      C1081   1.414       .  A
C1081      C1082   1.401       .  A
C1081      N1085   1.429       .  S
C1082      H1086   1.086       .  S
N1083      O1094   1.262   1_655  A
N1085      O1091   1.262       .  A
N1085      O1092   1.262       .  A
C1095      C1096   1.400       .  A
C1095      C1100   1.398       .  A
C1095      H1105   1.085       .  S
C1096      C1101   1.474       .  S
C1096      C1097   1.407       .  A
C1097      C1098   1.395       .  A
C1097      N1102   1.428       .  S
C1098      C1099   1.404       .  A
C1098      H1103   1.085       .  S
C1099      C1100   1.412       .  A
C1100      N1104   1.429       .  S
C1101      C1106   1.407       .  A
C1101      C1110   1.400       .  A
N1102      O1117   1.262       .  A
N1102      O1118   1.262       .  A
N1104      O1115   1.262       .  A
N1104      O1116   1.261       .  A
C1106      C1107   1.399       .  A
C1106      N1111   1.429       .  S
C1107      C1108   1.406       .  A
C1107      H1112   1.084       .  S
C1108      C1109   1.415       .  A
C1109      C1110   1.398       .  A
C1109      N1113   1.429       .  S
C1110      H1114   1.084       .  S
N1111      O1121   1.262       .  A
N1111      O1122   1.262       .  A
N1113      O1521   1.262       .  A
N1113      O1522   1.262       .  A
O1119      N1515   1.262       .  A
O1120      N1515   1.262       .  A
C1123      C1124   1.401       .  A
C1123      C1128   1.399       .  A
C1123      H1133   1.085       .  S
C1124      C1129   1.485       .  S
C1124      C1125   1.412       .  A
C1125      C1126   1.399       .  A
C1125      N1130   1.429       .  S
C1126      C1127   1.401       .  A
C1126      H1131   1.087       .  S
C1127      C1128   1.416       .  A
C1128      N1132   1.429       .  S
C1129      C1134   1.412       .  A
C1129      C1138   1.402       .  A
N1130      O1145   1.262       .  A
N1130      O1146   1.262       .  A
N1132      O1143   1.261       .  A
N1132      O1144   1.260       .  A
C1134      C1135   1.398       .  A
C1134      N1139   1.428       .  S
C1135      C1136   1.405       .  A
C1135      H1140   1.086       .  S
C1136      C1137   1.418       .  A
C1137      C1138   1.400       .  A
C1137      N1141   1.429       .  S
C1138      H1142   1.086       .  S
N1139      O1149   1.261       .  A
N1139      O1150   1.262       .  A
N1141      O1147   1.262       .  A
N1141      O1148   1.262       .  A
C1151      C1152   1.403       .  A
C1151      C1156   1.401       .  A
C1151      H1161   1.085       .  S
C1152      C1157   1.482       .  S
C1152      C1153   1.409       .  A
C1153      C1154   1.398       .  A
C1153      N1158   1.428       .  S
C1154      C1155   1.402       .  A
C1154      H1159   1.085       .  S
C1155      C1156   1.413       .  A
C1156      N1160   1.429       .  S
C1157      C1162   1.407       .  A
C1157      C1166   1.403       .  A
N1158      O1173   1.262       .  A
N1158      O1174   1.261       .  A
N1160      O1171   1.262       .  A
N1160      O1172   1.262       .  A
C1162      C1163   1.397       .  A
C1162      N1167   1.429       .  S
C1163      C1164   1.409       .  A
C1163      H1168   1.086       .  S
C1164      C1165   1.417       .  A
C1165      C1166   1.402       .  A
C1165      N1169   1.429       .  S
C1166      H1170   1.086       .  S
N1167      O1177   1.262       .  A
N1167      O1178   1.262       .  A
N1169      O1175   1.262       .  A
N1169      O1176   1.262       .  A
C1179      C1180   1.398       .  A
C1179      C1184   1.397       .  A
C1179      H1189   1.088       .  S
C1180      C1185   1.476       .  S
C1180      C1181   1.407       .  A
C1181      C1182   1.398       .  A
C1181      N1186   1.428       .  S
C1182      C1183   1.405       .  A
C1182      H1187   1.087       .  S
C1183      C1184   1.412       .  A
C1184      N1188   1.427       .  S
C1185      C1190   1.406       .  A
C1185      C1194   1.401       .  A
N1186      O1201   1.262       .  A
N1186      O1202   1.262       .  A
N1188      O1199   1.262       .  A
N1188      O1200   1.261       .  A
C1190      C1191   1.395       .  A
C1190      N1195   1.429       .  S
C1191      C1192   1.408       .  A
C1191      H1196   1.085       .  S
C1192      C1193   1.417       .  A
C1193      C1194   1.402       .  A
C1193      N1197   1.429       .  S
C1194      H1198   1.086       .  S
N1195      O1205   1.262       .  A
N1195      O1206   1.262       .  A
N1197      O1605   1.262       .  A
N1197      O1606   1.262       .  A
O1203      N1599   1.262       .  A
O1204      N1599   1.262       .  A
C1207      H1208   1.109       .  S
C1207      C1213   1.541       .  S
C1207      C1212   1.532       .  S
C1207      C1211   1.535       .  S
C1209      H1210   1.106       .  S
C1209      C1215   1.533       .  S
C1209      C1214   1.542       .  S
C1209      C1216   1.534       .  S
C1211      C1214   1.375       .  D
C1211      C1557   1.484       .  S
C1212      C1215   1.378       .  D
C1212      C1585   1.485       .  S
C1213      C1216   1.375       .  D
C1213      C1529   1.486       .  S
C1214      C1473   1.491       .  S
C1215      C1501   1.482       .  S
C1216      C1445   1.490       .  S
C1217      H1218   1.109       .  S
C1217      C1223   1.538       .  S
C1217      C1222   1.539       .  S
C1217      C1221   1.538       .  S
C1219      H1220   1.109       .  S
C1219      C1225   1.533       .  S
C1219      C1224   1.539       .  S
C1219      C1226   1.538       .  S
C1221      C1224   1.378       .  D
C1221      C1389   1.489       .  S
C1222      C1225   1.375       .  D
C1222      C1361   1.482       .  S
C1223      C1226   1.376       .  D
C1223      C1417   1.482       .  S
C1224      C1314   1.490       .  S
C1225      C1286   1.495       .  S
C1226      C1333   1.490       .  S
O1227      C1243   1.275       .  A
C1228      O1244   1.273       .  A
C1228      O1241   1.271       .  A
C1228      C1510   1.479       .  S
O1229      C1242   1.276       .  A
O1230      C1248   1.273       .  A
O1230     Cd1239   2.063   1_554  S
O1231      C1245   1.278       .  A
O1232      C1243   1.275       .  A
O1232     Cd1235   2.080       .  S
Zn1233     O1246   2.014   1_556  S
O1234      C1245   1.274       .  A
Cd1235     O1237   2.065   1_556  S
Cd1236     O1238   2.013   1_554  S
O1237      C1247   1.277       .  A
Cd1239     O1241   2.057       .  S
O1240      C1247   1.279       .  A
C1242      O1246   1.275       .  A
C1242      C1342   1.485       .  S
C1243      C1482   1.487       .  S
C1245      C1454   1.487       .  S
C1247      C1305   1.492       .  S
C1248      O1249   1.278       .  A
C1248      C1277   1.486       .  S
O1250      C1266   1.275       .  A
C1251      O1267   1.277       .  A
C1251      O1264   1.274       .  A
C1251      C1398   1.489       .  S
O1252      C1265   1.277       .  A
O1252     Cd1259   2.070       .  S
O1253      C1271   1.275       .  A
O1253     Cd1262   2.062       .  S
O1254      C1268   1.275       .  A
O1255      C1266   1.276       .  A
O1255     Cd1258   2.071       .  S
Zn1256     O1269   2.015       .  S
Zn1256     O1261   1.952       .  S
O1257      C1268   1.277       .  A
Cd1258     O1260   2.055       .  S
Cd1259     O1261   2.007       .  S
O1260      C1270   1.275       .  A
Cd1262     O1264   2.072       .  S
O1263      C1270   1.275       .  A
C1265      O1269   1.272       .  A
C1265      C1538   1.489       .  S
C1266      C1370   1.485       .  S
C1268      C1426   1.486       .  S
C1270      C1594   1.488       .  S
C1271      O1272   1.276       .  A
C1271      C1566   1.492       .  S
C1273      C1274   1.399       .  A
C1273      C1278   1.402       .  A
C1273      H1283   1.086       .  S
C1274      C1279   1.477       .  S
C1274      C1275   1.406       .  A
C1275      C1276   1.398       .  A
C1275      N1280   1.427       .  S
C1276      C1277   1.404       .  A
C1276      H1281   1.086       .  S
C1277      C1278   1.419       .  A
C1278      N1282   1.429       .  S
C1279      C1284   1.406       .  A
C1279      C1288   1.394       .  A
N1280      O1296   1.261       .  A
N1282      O1293   1.262       .  A
N1282      O1294   1.262       .  A
C1284      C1285   1.405       .  A
C1284      N1289   1.428       .  S
C1285      C1286   1.409       .  A
C1285      H1290   1.082       .  S
C1286      C1287   1.415       .  A
C1287      C1288   1.400       .  A
C1287      N1291   1.427       .  S
C1288      H1292   1.083       .  S
N1289      O1299   1.262       .  A
N1289      O1300   1.262       .  A
N1291      O1297   1.261       .  A
N1291      O1298   1.262       .  A
C1301      C1302   1.402       .  A
C1301      C1306   1.404       .  A
C1301      H1311   1.085       .  S
C1302      C1307   1.481       .  S
C1302      C1303   1.407       .  A
C1303      C1304   1.399       .  A
C1303      N1308   1.429       .  S
C1304      C1305   1.409       .  A
C1305      C1306   1.417       .  A
C1306      N1310   1.428       .  S
C1307      C1312   1.409       .  A
C1307      C1316   1.401       .  A
N1308      O1324   1.262       .  A
N1310      O1321   1.262       .  A
N1310      O1322   1.262       .  A
C1312      C1313   1.400       .  A
C1312      N1317   1.428       .  S
C1313      C1314   1.403       .  A
C1313      H1318   1.085       .  S
C1314      C1315   1.414       .  A
C1315      C1316   1.403       .  A
C1315      N1319   1.429       .  S
C1316      H1320   1.084       .  S
N1317      O1327   1.262       .  A
N1317      O1328   1.262       .  A
N1319      O1325   1.262       .  A
N1319      O1326   1.262       .  A
C1329      C1330   1.397       .  A
C1329      C1334   1.399       .  A
C1329      H1339   1.086       .  S
C1330      C1335   1.474       .  S
C1330      C1331   1.405       .  A
C1331      C1332   1.398       .  A
C1331      N1336   1.428       .  S
C1332      C1333   1.405       .  A
C1332      H1337   1.086       .  S
C1333      C1334   1.419       .  A
C1334      N1338   1.429       .  S
C1335      C1340   1.406       .  A
C1335      C1344   1.399       .  A
N1336      O1351   1.262       .  A
N1336      O1352   1.262       .  A
N1338      O1349   1.261       .  A
N1338      O1350   1.259       .  A
C1340      C1341   1.398       .  A
C1340      N1345   1.429       .  S
C1341      C1342   1.407       .  A
C1341      H1346   1.086       .  S
C1342      C1343   1.416       .  A
C1343      C1344   1.402       .  A
C1343      N1347   1.428       .  S
C1344      H1348   1.086       .  S
N1345      O1355   1.262       .  A
N1345      O1356   1.262       .  A
N1347      O1353   1.262       .  A
N1347      O1354   1.262   1_565  A
C1357      C1358   1.404       .  A
C1357      C1362   1.402       .  A
C1357      H1367   1.085       .  S
C1358      C1363   1.484       .  S
C1358      C1359   1.411       .  A
C1359      C1360   1.397       .  A
C1359      N1364   1.428       .  S
C1360      C1361   1.399       .  A
C1360      H1365   1.086       .  S
C1361      C1362   1.411       .  A
C1362      N1366   1.429       .  S
C1363      C1368   1.411       .  A
C1363      C1372   1.402       .  A
N1364      O1379   1.262       .  A
N1364      O1380   1.260       .  A
N1366      O1377   1.262       .  A
N1366      O1378   1.262       .  A
C1368      C1369   1.400       .  A
C1368      N1373   1.429       .  S
C1369      C1370   1.405       .  A
C1369      H1374   1.087       .  S
C1370      C1371   1.415       .  A
C1371      C1372   1.400       .  A
C1371      N1375   1.429       .  S
C1372      H1376   1.087       .  S
N1373      O1383   1.262       .  A
N1373      O1384   1.262       .  A
N1375      O1381   1.262       .  A
N1375      O1382   1.262       .  A
C1385      C1386   1.402       .  A
C1385      C1390   1.401       .  A
C1385      H1395   1.085       .  S
C1386      C1391   1.486       .  S
C1386      C1387   1.411       .  A
C1387      C1388   1.398       .  A
C1387      N1392   1.428       .  S
C1388      C1389   1.403       .  A
C1388      H1393   1.085       .  S
C1389      C1390   1.413       .  A
C1390      N1394   1.428       .  S
C1391      C1396   1.411       .  A
C1391      C1400   1.402       .  A
N1392      O1407   1.262       .  A
N1392      O1408   1.262       .  A
N1394      O1405   1.262       .  A
N1394      O1406   1.262       .  A
C1396      C1397   1.399       .  A
C1396      N1401   1.429       .  S
C1397      C1398   1.406       .  A
C1398      C1399   1.417       .  A
C1399      C1400   1.401       .  A
C1399      N1403   1.429       .  S
C1400      H1404   1.086       .  S
N1401      O1412   1.262       .  A
N1403      O1409   1.262       .  A
N1403      O1410   1.262       .  A
C1413      C1414   1.405       .  A
C1413      C1418   1.403       .  A
C1413      H1423   1.086       .  S
C1414      C1419   1.481       .  S
C1414      C1415   1.408       .  A
C1415      C1416   1.397       .  A
C1415      N1420   1.428       .  S
C1416      C1417   1.402       .  A
C1416      H1421   1.086       .  S
C1417      C1418   1.410       .  A
C1418      N1422   1.430       .  S
C1419      C1424   1.408       .  A
C1419      C1428   1.400       .  A
N1420      O1435   1.262       .  A
N1420      O1436   1.262       .  A
N1422      O1433   1.262       .  A
N1422      O1434   1.262       .  A
C1424      C1425   1.400       .  A
C1424      N1429   1.429       .  S
C1425      C1426   1.405       .  A
C1425      H1430   1.085       .  S
C1426      C1427   1.416       .  A
C1427      C1428   1.402       .  A
C1428      H1432   1.086       .  S
N1429      O1440   1.262       .  A
N1431      O1437   1.262       .  A
N1431      O1438   1.262       .  A
C1441      C1442   1.401       .  A
C1441      C1446   1.401       .  A
C1441      H1451   1.086       .  S
C1442      C1447   1.483       .  S
C1442      C1443   1.410       .  A
C1443      C1444   1.400       .  A
C1443      N1448   1.427       .  S
C1444      C1445   1.403       .  A
C1444      H1449   1.085       .  S
C1445      C1446   1.413       .  A
C1446      N1450   1.428       .  S
C1447      C1452   1.407       .  A
C1447      C1456   1.405       .  A
N1448      O1463   1.260       .  A
N1448      O1464   1.261       .  A
N1450      O1461   1.262       .  A
N1450      O1462   1.262       .  A
C1452      C1453   1.399       .  A
C1452      N1457   1.428       .  S
C1453      C1454   1.407       .  A
C1453      H1458   1.084       .  S
C1454      C1455   1.414       .  A
C1455      C1456   1.405       .  A
C1455      N1459   1.429       .  S
C1456      H1460   1.084       .  S
N1457      O1467   1.262       .  A
N1457      O1468   1.262       .  A
C1469      C1470   1.401       .  A
C1469      C1474   1.401       .  A
C1469      H1479   1.086       .  S
C1470      C1475   1.486       .  S
C1470      C1471   1.411       .  A
C1471      C1472   1.401       .  A
C1471      N1476   1.428       .  S
C1472      C1473   1.402       .  A
C1472      H1477   1.086       .  S
C1473      C1474   1.418       .  A
C1474      N1478   1.430       .  S
C1475      C1480   1.410       .  A
C1475      C1484   1.403       .  A
N1476      O1491   1.262       .  A
N1476      O1492   1.262       .  A
N1478      O1489   1.262       .  A
N1478      O1490   1.260       .  A
C1480      C1481   1.402       .  A
C1480      N1485   1.429       .  S
C1481      C1482   1.406       .  A
C1481      H1486   1.085       .  S
C1482      C1483   1.414       .  A
C1483      C1484   1.402       .  A
C1483      N1487   1.429       .  S
C1484      H1488   1.086       .  S
N1485      O1496   1.262       .  A
N1487      O1493   1.262       .  A
N1487      O1494   1.262       .  A
C1497      C1498   1.400       .  A
C1497      C1502   1.397       .  A
C1497      H1507   1.085       .  S
C1498      C1503   1.474       .  S
C1498      C1499   1.407       .  A
C1499      C1500   1.396       .  A
C1499      N1504   1.428       .  S
C1500      C1501   1.404       .  A
C1500      H1505   1.085       .  S
C1501      C1502   1.412       .  A
C1502      N1506   1.429       .  S
C1503      C1508   1.407       .  A
C1503      C1512   1.401       .  A
N1504      O1519   1.262       .  A
N1504      O1520   1.262       .  A
N1506      O1517   1.262       .  A
N1506      O1518   1.261       .  A
C1508      C1509   1.398       .  A
C1508      N1513   1.429       .  S
C1509      C1510   1.406       .  A
C1509      H1514   1.084       .  S
C1510      C1511   1.413       .  A
C1511      C1512   1.397       .  A
C1511      N1515   1.429       .  S
C1512      H1516   1.085       .  S
N1513      O1523   1.262       .  A
N1513      O1524   1.262       .  A
C1525      C1526   1.400       .  A
C1525      C1530   1.398       .  A
C1525      H1535   1.086       .  S
C1526      C1531   1.485       .  S
C1526      C1527   1.412       .  A
C1527      C1528   1.401       .  A
C1527      N1532   1.428       .  S
C1528      C1529   1.401       .  A
C1528      H1533   1.087       .  S
C1529      C1530   1.415       .  A
C1530      N1534   1.429       .  S
C1531      C1536   1.411       .  A
C1531      C1540   1.402       .  A
N1532      O1547   1.262       .  A
N1532      O1548   1.262       .  A
N1534      O1545   1.261       .  A
N1534      O1546   1.260       .  A
C1536      C1537   1.396       .  A
C1536      N1541   1.428       .  S
C1537      C1538   1.404       .  A
C1537      H1542   1.086       .  S
C1538      C1539   1.419       .  A
C1539      C1540   1.402       .  A
C1539      N1543   1.429       .  S
C1540      H1544   1.087       .  S
N1541      O1551   1.261       .  A
N1541      O1552   1.262       .  A
N1543      O1549   1.262       .  A
N1543      O1550   1.262       .  A
C1553      C1554   1.403       .  A
C1553      C1558   1.403       .  A
C1553      H1563   1.085       .  S
C1554      C1559   1.482       .  S
C1554      C1555   1.408       .  A
C1555      C1556   1.397       .  A
C1555      N1560   1.427       .  S
C1556      C1557   1.401       .  A
C1556      H1561   1.085       .  S
C1557      C1558   1.413       .  A
C1558      N1562   1.430       .  S
C1559      C1564   1.406       .  A
C1559      C1568   1.402       .  A
N1560      O1575   1.261       .  A
N1560      O1576   1.262       .  A
N1562      O1573   1.262       .  A
N1562      O1574   1.262       .  A
C1564      C1565   1.398       .  A
C1564      N1569   1.429       .  S
C1565      C1566   1.409       .  A
C1565      H1570   1.085       .  S
C1566      C1567   1.417       .  A
C1567      C1568   1.403       .  A
C1567      N1571   1.429       .  S
C1568      H1572   1.086       .  S
N1569      O1579   1.262       .  A
N1569      O1580   1.262       .  A
N1571      O1577   1.262       .  A
N1571      O1578   1.262       .  A
C1581      C1582   1.398       .  A
C1581      C1586   1.397       .  A
C1581      H1591   1.087       .  S
C1582      C1587   1.477       .  S
C1582      C1583   1.408       .  A
C1583      C1584   1.399       .  A
C1583      N1588   1.428       .  S
C1584      C1585   1.404       .  A
C1584      H1589   1.087       .  S
C1585      C1586   1.412       .  A
C1586      N1590   1.427       .  S
C1587      C1592   1.407       .  A
C1587      C1596   1.401       .  A
N1588      O1603   1.262       .  A
N1588      O1604   1.262       .  A
N1590      O1601   1.262       .  A
N1590      O1602   1.262       .  A
C1592      C1593   1.395       .  A
C1592      N1597   1.429       .  S
C1593      C1594   1.408       .  A
C1593      H1598   1.085       .  S
C1594      C1595   1.417       .  A
C1595      C1596   1.402       .  A
C1595      N1599   1.429       .  S
C1596      H1600   1.086       .  S
N1597      O1607   1.262       .  A
N1597      O1608   1.262       .  A
