geometry optimzed in LAMMPS
_audit_creation_date              2020-11-30 
_audit_creation_method            'lammps2cif' 
_symmetry_space_group_name_H-M    'P1' 
_symmetry_Int_Tables_number       1 
_symmetry_cell_setting            triclinic 
loop_ 
_symmetry_equiv_pos_as_xyz 
  x,y,z 
_cell_length_a                    81.67419331 
_cell_length_b                    81.36151931255971 
_cell_length_c                    76.0333182395655 
_cell_angle_alpha                 90.11834893949037 
_cell_angle_beta                  90.12734560407905 
_cell_angle_gamma                 90.04861078530291 
loop_ 
_atom_site_label 
_atom_site_type_symbol 
_atom_site_fract_x 
_atom_site_fract_y 
_atom_site_fract_z 
_atom_site_charge 
N1          N  0.50991471  0.53470849  0.18472504    -0.27300
N2          N  0.52250412  0.54221224  0.19217371    -0.35200
C3          C  0.52186038  0.53988311  0.20965685     0.01000
C4          C  0.50817435  0.53043460  0.21348591     0.07000
C5          C  0.50092843  0.52740285  0.19726918    -0.06100
H6          H  0.53083665  0.54465083  0.21881016     0.07700
H7          H  0.48989325  0.52046240  0.19465376     0.08900
Cu8        Cu  0.53994150  0.55546255  0.17837697     0.44200
Cu9        Cu  0.50543730  0.53458108  0.15785980     0.42000
Cu10       Cu  0.53259562  0.55929861  0.13168384     0.43900
N11         N  0.55483630  0.56882394  0.16160408    -0.34700
N12         N  0.55188818  0.57036754  0.14460290    -0.29000
C13         C  0.56339822  0.57999204  0.13740516    -0.05100
C14         C  0.57419578  0.58482633  0.15050074     0.07100
C15         C  0.56838592  0.57744055  0.16568983     0.00900
H16         H  0.56385079  0.58308691  0.12359521     0.08600
H17         H  0.57341062  0.57845544  0.17882529     0.07700
N18         N  0.51374662  0.54554535  0.12119977    -0.36200
N19         N  0.50390498  0.53624320  0.13068803    -0.28400
C20         C  0.49354931  0.52828677  0.11985332    -0.03600
C21         C  0.49701503  0.53284647  0.10267816     0.05000
C22         C  0.50991962  0.54383668  0.10411406     0.03100
H23         H  0.48422217  0.51978293  0.12424646     0.08200
H24         H  0.51640205  0.54986471  0.09355238     0.07000
N25         N  0.44322063  0.47440007  0.87567871    -0.27300
N26         N  0.43160425  0.46626137  0.86725120    -0.35200
C27         C  0.43416194  0.46747851  0.84985085     0.01000
C28         C  0.44812438  0.47685379  0.84707423     0.07000
C29         C  0.45350814  0.48101640  0.86384808    -0.06100
H30         H  0.42641548  0.46178681  0.84002317     0.07700
H31         H  0.46404740  0.48840347  0.86730873     0.08900
Cu32       Cu  0.41285898  0.45375002  0.87976135     0.44200
Cu33       Cu  0.44434541  0.47621320  0.90288217     0.42000
Cu34       Cu  0.41190624  0.45617713  0.92736782     0.43900
N35         N  0.39556767  0.44197981  0.89516282    -0.34700
N36         N  0.39527216  0.44277645  0.91251827    -0.29000
C37         C  0.38257585  0.43386512  0.91845681    -0.05100
C38         C  0.37440436  0.42715735  0.90414021     0.07100
C39         C  0.38303299  0.43259548  0.88958495     0.00900
H40         H  0.37936548  0.43270071  0.93218824     0.08600
H41         H  0.38045993  0.42995923  0.87590827     0.07700
N42         N  0.43031086  0.47003105  0.93897251    -0.36200
N43         N  0.44225487  0.47710285  0.93005742    -0.28400
C44         C  0.45212381  0.48512517  0.94134482    -0.03600
C45         C  0.44609460  0.48310456  0.95824004     0.05000
C46         C  0.43222042  0.47342866  0.95617434     0.03100
H47         H  0.46270124  0.49220506  0.93739838     0.08200
H48         H  0.42408219  0.46911416  0.96635605     0.07000
N49         N  0.46290382  0.45614909  0.37967553    -0.27300
N50         N  0.45680368  0.44354778  0.37086639    -0.35200
C51         C  0.45884722  0.44608310  0.35357243     0.01000
C52         C  0.46656566  0.46108714  0.35130763     0.07000
C53         C  0.46893304  0.46714458  0.36818963    -0.06100
H54         H  0.45464863  0.43773786  0.34341887     0.07700
H55         H  0.47468460  0.47861299  0.37190053     0.08900
Cu56       Cu  0.44523879  0.42391045  0.38267373     0.44200
Cu57       Cu  0.46256591  0.45747860  0.40686878     0.42000
Cu58       Cu  0.43941574  0.42535371  0.42966648     0.43900
N59         N  0.43257650  0.40624115  0.39655814    -0.34700
N60         N  0.43001838  0.40680529  0.41369598    -0.29000
C61         C  0.42131031  0.39347127  0.41842840    -0.05100
C62         C  0.41832948  0.38402338  0.40351721     0.07100
C63         C  0.42566589  0.39259720  0.38993038     0.00900
H64         H  0.41774880  0.39072533  0.43179707     0.08600
H65         H  0.42593524  0.38928829  0.37614391     0.07700
N66         N  0.45250410  0.44393305  0.44224317    -0.36200
N67         N  0.46105546  0.45533352  0.43395544    -0.28400
C68         C  0.46894036  0.46467105  0.44586258    -0.03600
C69         C  0.46521163  0.45894017  0.46253088     0.05000
C70         C  0.45468752  0.44579600  0.45967313     0.03100
H71         H  0.47693354  0.47479347  0.44250883     0.08200
H72         H  0.44941758  0.43776848  0.46946630     0.07000
N73         N  0.52096007  0.52785262  0.68174631    -0.27300
N74         N  0.52630223  0.54153286  0.68920621    -0.35200
C75         C  0.52243477  0.54132527  0.70637264     0.01000
C76         C  0.51422465  0.52678946  0.71002975     0.07000
C77         C  0.51356584  0.51856953  0.69401059    -0.06100
H78         H  0.52547101  0.55111971  0.71545393     0.07700
H79         H  0.50798201  0.50677767  0.69130533     0.08900
Cu80       Cu  0.53862784  0.56001645  0.67595759     0.44200
Cu81       Cu  0.52366119  0.52245878  0.65516608     0.42000
Cu82       Cu  0.54672551  0.55242878  0.63030712     0.43900
N83         N  0.55098209  0.57643191  0.65994506    -0.34700
N84         N  0.55406547  0.57353006  0.64319377    -0.29000
C85         C  0.56183615  0.58655066  0.63628820    -0.05100
C86         C  0.56377198  0.59833814  0.64933904     0.07100
C87         C  0.55672753  0.59140382  0.66418392     0.00900
H88         H  0.56539394  0.58742308  0.62263467     0.08600
H89         H  0.55563920  0.59682259  0.67713870     0.07700
N90         N  0.53646899  0.53158558  0.61938727    -0.36200
N91         N  0.52780508  0.52069405  0.62825710    -0.28400
C92         C  0.52174511  0.50951817  0.61690364    -0.05200
C93         C  0.52684421  0.51359739  0.60004208     0.05000
C94         C  0.53621935  0.52765437  0.60223896     0.03100
H95         H  0.51382387  0.49946491  0.62067191     0.08200
H96         H  0.54178486  0.53504846  0.59209016     0.07000
C97         C  0.70283044  0.65928902  0.12479145     0.80200
N98         N  0.70225959  0.67561913  0.12125006    -0.78100
C99         C  0.71555784  0.68359928  0.11479610     0.82600
N100        N  0.72955593  0.67502049  0.11180145    -0.78100
C101        C  0.73027657  0.65862240  0.11511233     0.82700
N102        N  0.71687562  0.65087512  0.12165934    -0.79800
C103        C  0.73466433  0.86068639  0.10126807     0.80200
N104        N  0.73501712  0.84402709  0.10010519    -0.78100
C105        C  0.72091430  0.83515511  0.09990567     0.82600
N106        N  0.70632898  0.84314069  0.10094725    -0.78100
C107        C  0.70576093  0.85980663  0.10199834     0.82700
N108        N  0.71998358  0.86847138  0.10212492    -0.79800
N109        N  0.42491362  0.03260418  0.85304708    -0.27300
N110        N  0.41372671  0.04138734  0.84477398    -0.35200
C111        C  0.41496464  0.03867760  0.82739088     0.01000
C112        C  0.42760045  0.02761586  0.82454778     0.07000
C113        C  0.43366136  0.02410372  0.84116457    -0.06100
H114        H  0.40705934  0.04418690  0.81764859     0.07700
H115        H  0.44327730  0.01550696  0.84449739     0.08900
Cu116      Cu  0.39666284  0.05572186  0.85769873     0.44200
Cu117      Cu  0.42656765  0.03160028  0.88014293     0.42000
Cu118      Cu  0.39658866  0.05475487  0.90554327     0.43900
N119        N  0.38003953  0.06828255  0.87316598    -0.34700
N120        N  0.37998264  0.06811921  0.89054679    -0.29000
C121        C  0.36730297  0.07719993  0.89630093    -0.05100
C122        C  0.35889873  0.08327595  0.88182627     0.07100
C123        C  0.36740505  0.07735750  0.86740085     0.00900
H124        H  0.36418425  0.07881603  0.91001601     0.08600
H125        H  0.36462731  0.07935804  0.85366787     0.07700
N126        N  0.41430163  0.03962318  0.91664355    -0.36200
N127        N  0.42507115  0.03126092  0.90727144    -0.28400
C128        C  0.43482945  0.02275660  0.91815325    -0.03600
C129        C  0.43009860  0.02587348  0.93532368     0.05000
C130        C  0.41699139  0.03665779  0.93382775     0.03100
H131        H  0.44486217  0.01512935  0.91374700     0.08200
H132        H  0.40992158  0.04200749  0.94437609     0.07000
N133        N  0.49839996  0.96356550  0.15661880    -0.27300
N134        N  0.51179512  0.95798204  0.16432008    -0.35200
C135        C  0.50998967  0.95904144  0.18186360     0.01000
C136        C  0.49465363  0.96554905  0.18540115     0.07000
C137        C  0.48767992  0.96824007  0.16902498    -0.06100
H138        H  0.51919767  0.95532172  0.19128880     0.07700
H139        H  0.47586004  0.97364283  0.16623360     0.08900
Cu140      Cu  0.53180267  0.94908327  0.15056418     0.44200
Cu141      Cu  0.49553427  0.96546237  0.12963968     0.42000
Cu142      Cu  0.52932183  0.95179486  0.10291203     0.43900
N143        N  0.54929381  0.93955181  0.13367646    -0.34700
N144        N  0.54842522  0.94063464  0.11635634    -0.29000
C145        C  0.56143853  0.93300059  0.10929864    -0.05100
C146        C  0.57096660  0.92670247  0.12280354     0.07100
C147        C  0.56283902  0.93111152  0.13808682     0.00900
H148        H  0.56357009  0.93185390  0.09530604     0.08600
H149        H  0.56647774  0.92844902  0.15147240     0.07700
N150        N  0.50856684  0.96298706  0.09273304    -0.36200
N151        N  0.49614223  0.96781882  0.10254556    -0.28400
C152        C  0.48486326  0.97501249  0.09223915    -0.03600
C153        C  0.49043317  0.97478714  0.07502003     0.05000
C154        C  0.50553258  0.96699089  0.07588369     0.03100
H155        H  0.47367581  0.98044583  0.09711657     0.08200
H156        H  0.51383736  0.96453332  0.06516202     0.07000
N157        N  0.47384554  0.94562067  0.66281330    -0.27300
N158        N  0.48135022  0.93396707  0.67182045    -0.35200
C159        C  0.48026896  0.93739575  0.68907830     0.01000
C160        C  0.47171047  0.95200472  0.69112201     0.07000
C161        C  0.46780796  0.95678750  0.67410736    -0.06100
H162        H  0.48573910  0.92995107  0.69926607     0.07700
H163        H  0.46126215  0.96769555  0.67007159     0.08900
Cu164      Cu  0.49377789  0.91454374  0.66038124     0.44200
Cu165      Cu  0.47273586  0.94646480  0.63554802     0.42000
Cu166      Cu  0.49475340  0.91472779  0.61277293     0.43900
N167        N  0.50663925  0.89760215  0.64550631    -0.34700
N168        N  0.50711947  0.89782123  0.62814321    -0.29000
C169        C  0.51673062  0.88551917  0.62249232    -0.05100
C170        C  0.52257802  0.87705550  0.63700025     0.07100
C171        C  0.51589659  0.88510239  0.65138221     0.00900
H172        H  0.51908301  0.88288013  0.60878463     0.08600
H173        H  0.51775019  0.88227121  0.66512987     0.07700
N174        N  0.48187654  0.93309452  0.60003196    -0.36200
N175        N  0.47384543  0.94484934  0.60832492    -0.28400
C176        C  0.46712826  0.95499189  0.59636412    -0.03600
C177        C  0.47110256  0.94933324  0.57966019     0.05000
C178        C  0.48047377  0.93538300  0.58260337     0.03100
H179        H  0.45987361  0.96566283  0.59967886     0.08200
H180        H  0.48612624  0.92753088  0.57287362     0.07000
N181        N  0.43951610  0.02218323  0.35730660    -0.27300
N182        N  0.43400733  0.03457018  0.34775439    -0.35200
C183        C  0.43821019  0.03212082  0.33086836     0.01000
C184        C  0.44684604  0.01749955  0.32971331     0.07000
C185        C  0.44744244  0.01158072  0.34676875    -0.06100
H186        H  0.43522188  0.04044433  0.32027694     0.07700
H187        H  0.45295035  0.00022781  0.35122068     0.08900
Cu188      Cu  0.42072812  0.05414275  0.35780620     0.44200
Cu189      Cu  0.43582895  0.01982977  0.38414419     0.42000
Cu190      Cu  0.41103543  0.05115078  0.40397649     0.43900
N191        N  0.40675618  0.07135967  0.37115117    -0.34700
N192        N  0.40294654  0.06991233  0.38795029    -0.29000
C193        C  0.39363279  0.08271199  0.39277755    -0.05100
C194        C  0.39146734  0.09283000  0.37834732     0.07100
C195        C  0.40002235  0.08525022  0.36483951     0.00900
H196        H  0.38909100  0.08462779  0.40597532     0.08600
H197        H  0.40116833  0.08939434  0.35140037     0.07700
N198        N  0.42170008  0.03232186  0.41805920    -0.36200
N199        N  0.43071951  0.02068238  0.41081677    -0.28400
C200        C  0.43611836  0.01053849  0.42350319    -0.03600
C201        C  0.43029334  0.01615547  0.43954566     0.05000
C202        C  0.42119426  0.03000984  0.43553564     0.03100
H203        H  0.44406250  0.00011992  0.42122348     0.08200
H204        H  0.41468757  0.03789296  0.44459998     0.07000
C205        C  0.19864691  0.15972572  0.86240205     0.80200
N206        N  0.21266666  0.15080086  0.86347801    -0.78100
C207        C  0.22703182  0.15803472  0.86824552     0.82600
N208        N  0.22725896  0.17440094  0.87195533    -0.78100
C209        C  0.21333936  0.18349823  0.87087372     0.82700
N210        N  0.19912721  0.17604206  0.86610257    -0.79800
C211        C  0.21039969  0.35901628  0.89696314     0.80200
N212        N  0.22498798  0.36704718  0.89704077    -0.78100
C213        C  0.23930764  0.35860946  0.89763989     0.82600
N214        N  0.23895217  0.34192688  0.89800826    -0.78100
C215        C  0.22448595  0.33367494  0.89762558     0.82700
N216        N  0.21024629  0.34231550  0.89719365    -0.79800
N217        N  0.99898887  0.05852273  0.31044627    -0.27300
N218        N  0.00538136  0.07149209  0.30255303    -0.35200
C219        C  0.00257502  0.07031990  0.28514668     0.01000
C220        C  0.99415774  0.05583280  0.28191019     0.07000
C221        C  0.99212760  0.04867983  0.29826602    -0.06100
H222        H  0.00660407  0.07924357  0.27554627     0.07700
H223        H  0.98587993  0.03728618  0.30117349     0.08900
Cu224      Cu  0.01805242  0.08995438  0.31569091     0.44200
Cu225      Cu  0.99933789  0.05473719  0.33743491     0.42000
Cu226      Cu  0.02094715  0.08515409  0.36286243     0.43900
N227        N  0.03065483  0.10609003  0.33201759    -0.34700
N228        N  0.03181560  0.10419243  0.34922645    -0.29000
C229        C  0.04075376  0.11655525  0.35599542    -0.05100
C230        C  0.04545286  0.12683517  0.34240000     0.07100
C231        C  0.03880020  0.11977128  0.32737496     0.00900
H232        H  0.04335055  0.11803812  0.36986762     0.08600
H233        H  0.03984572  0.12414493  0.31399901     0.07700
N234        N  0.00888833  0.06537290  0.37389066    -0.36200
N235        N  0.00092287  0.05414830  0.36467541    -0.28400
C236        C  0.99452753  0.04301214  0.37578137    -0.03600
C237        C  0.99870920  0.04743011  0.39287840     0.05000
C238        C  0.00781178  0.06172636  0.39105672     0.03100
H239        H  0.98749753  0.03242703  0.37160877     0.08200
H240        H  0.01328192  0.06907453  0.40136993     0.07000
N241        N  0.95417185  0.97245438  0.61022283    -0.27300
N242        N  0.94540063  0.96225113  0.61986339    -0.35200
C243        C  0.94740591  0.96609110  0.63693077     0.01000
C244        C  0.95791806  0.97944828  0.63809427     0.07000
C245        C  0.96194425  0.98312180  0.62085564    -0.06100
H246        H  0.94141559  0.95976132  0.64761388     0.07700
H247        H  0.96999923  0.99275750  0.61628941     0.08900
Cu248      Cu  0.93087849  0.94387224  0.60930439     0.44200
Cu249      Cu  0.95500590  0.97164406  0.58309047     0.42000
Cu250      Cu  0.92965724  0.94149373  0.56147067     0.43900
N251        N  0.91778173  0.92640484  0.59535668    -0.34700
N252        N  0.91750478  0.92540623  0.57800270    -0.29000
C253        C  0.90861546  0.91222596  0.57321831    -0.05100
C254        C  0.90293656  0.90461566  0.58828748     0.07100
C255        C  0.90895831  0.91397999  0.60207555     0.00900
H256        H  0.90653334  0.90845747  0.55974808     0.08600
H257        H  0.90750902  0.91166663  0.61598976     0.07700
N258        N  0.94403896  0.95828491  0.54809321    -0.36200
N259        N  0.95347809  0.96916460  0.55609698    -0.28400
C260        C  0.96144508  0.97806116  0.54396881    -0.03600
C261        C  0.95682118  0.97255653  0.52741599     0.05000
C262        C  0.94571435  0.95998585  0.53060208     0.03100
H263        H  0.96981864  0.98794916  0.54709564     0.08200
H264        H  0.93937483  0.95249785  0.52100373     0.07000
N265        N  0.92682909  0.00053358  0.11596648    -0.27300
N266        N  0.91415545  0.99571421  0.12543151    -0.35200
C267        C  0.91609919  0.00088655  0.14209264     0.01000
C268        C  0.93079651  0.00924615  0.14326103     0.07000
C269        C  0.93732768  0.00875186  0.12646316    -0.06100
H270        H  0.90758560  0.99843677  0.15264567     0.07700
H271        H  0.94872211  0.01415932  0.12213621     0.08900
Cu272      Cu  0.89501706  0.98188345  0.11558452     0.44200
Cu273      Cu  0.92872977  0.99614839  0.08909856     0.42000
Cu274      Cu  0.89537192  0.97281901  0.06921629     0.43900
N275        N  0.87757068  0.96754717  0.10324468    -0.34700
N276        N  0.87775652  0.96406635  0.08627523    -0.29000
C277        C  0.86497200  0.95428278  0.08246306    -0.05100
C278        C  0.85627515  0.95149528  0.09780105     0.07100
C279        C  0.86464513  0.96013611  0.11070329     0.00900
H280        H  0.86217360  0.94970535  0.06941956     0.08600
H281        H  0.86175343  0.96082828  0.12456130     0.07700
N282        N  0.91426631  0.98331940  0.05511047    -0.36200
N283        N  0.92648635  0.99164673  0.06226853    -0.28400
C284        C  0.93630149  0.99718083  0.04939431    -0.03600
C285        C  0.92992921  0.99215130  0.03331436     0.05000
C286        C  0.91594360  0.98336036  0.03753973     0.03100
H287        H  0.94699748  0.00474338  0.05163942     0.08200
H288        H  0.90743934  0.97752047  0.02857576     0.07000
N289        N  0.99745501  0.04555567  0.81101343    -0.27300
N290        N  0.00929848  0.05360632  0.80290206    -0.35200
C291        C  0.00842796  0.05042980  0.78555503     0.01000
C292        C  0.99538335  0.03985590  0.78254156     0.07000
C293        C  0.98873765  0.03708299  0.79903948    -0.06100
H294        H  0.01672029  0.05548307  0.77592217     0.07700
H295        H  0.97848637  0.02921384  0.80226773     0.08900
Cu296      Cu  0.02641565  0.06830457  0.81560230     0.44200
Cu297      Cu  0.99365775  0.04586404  0.83802341     0.42000
Cu298      Cu  0.02077619  0.07214926  0.86241159     0.43900
N299        N  0.04180420  0.08192785  0.83175595    -0.34700
N300        N  0.03945380  0.08354856  0.84885424    -0.29000
C301        C  0.05144860  0.09288837  0.85569680    -0.05100
C302        C  0.06197309  0.09733519  0.84228030     0.07100
C303        C  0.05547296  0.09012959  0.82726161     0.00900
H304        H  0.05265197  0.09577756  0.86953716     0.08600
H305        H  0.06029191  0.09075695  0.81404521     0.07700
N306        N  0.00275664  0.05809866  0.87400768    -0.36200
N307        N  0.99285640  0.04820606  0.86521588    -0.28400
C308        C  0.98329628  0.04013750  0.87673749    -0.03600
C309        C  0.98739852  0.04523905  0.89362875     0.05000
C310        C  0.99978957  0.05666840  0.89128938     0.03100
H311        H  0.97418969  0.03110481  0.87303753     0.08200
H312        H  0.00661359  0.06309685  0.90136623     0.07000
C313        C  0.62311109  0.76363117  0.62701532     0.80200
N314        N  0.63947154  0.76598172  0.62497777    -0.78100
C315        C  0.64985510  0.75296241  0.62420715     0.82600
N316        N  0.64368355  0.73748771  0.62523226    -0.78100
C317        C  0.62735825  0.73494074  0.62715538     0.82700
N318        N  0.61717242  0.74808015  0.62816979    -0.79800
C319        C  0.82744953  0.74870208  0.61959480     0.80200
N320        N  0.81101030  0.74746619  0.62187688    -0.78100
C321        C  0.80131819  0.76100000  0.62100706     0.82600
N322        N  0.80823717  0.77588967  0.61789257    -0.78100
C323        C  0.82465428  0.77732880  0.61561799     0.82700
N324        N  0.83417097  0.76367813  0.61648353    -0.79800
N325        N  0.99288309  0.47236017  0.34282421    -0.27300
N326        N  0.99987587  0.46025280  0.33403386    -0.35200
C327        C  0.99751415  0.46260833  0.31673626     0.01000
C328        C  0.98857709  0.47695584  0.31442015     0.07000
C329        C  0.98586107  0.48275652  0.33135058    -0.06100
H330        H  0.00221848  0.45450027  0.30668235     0.07700
H331        H  0.97947612  0.49382878  0.33517667     0.08900
Cu332      Cu  0.01294263  0.44140355  0.34575289     0.44200
Cu333      Cu  0.99408514  0.47469442  0.36991372     0.42000
Cu334      Cu  0.01858467  0.44400413  0.39267783     0.43900
N335        N  0.02626792  0.42441738  0.36010681    -0.34700
N336        N  0.02838560  0.42534399  0.37730231    -0.29000
C337        C  0.03783069  0.41272766  0.38253434    -0.05100
C338        C  0.04191195  0.40333968  0.36790176     0.07100
C339        C  0.03428933  0.41120859  0.35392710     0.00900
H340        H  0.04142709  0.41064576  0.39604432     0.08600
H341        H  0.03464434  0.40779225  0.34017407     0.07700
N342        N  0.00799847  0.46421148  0.40488388    -0.36200
N343        N  0.99898978  0.47526959  0.39663648    -0.28400
C344        C  0.99422021  0.48680237  0.40821394    -0.03600
C345        C  0.00054336  0.48289115  0.42463323     0.05000
C346        C  0.00920994  0.46843129  0.42193790     0.03100
H347        H  0.98682341  0.49733760  0.40475513     0.08200
H348        H  0.01590662  0.46137822  0.43158955     0.07000
N349        N  0.96831019  0.56240572  0.59153979    -0.27300
N350        N  0.95851678  0.57322509  0.58401241    -0.35200
C351        C  0.95705667  0.56960885  0.56683635     0.01000
C352        C  0.96642980  0.55579523  0.56325143     0.07000
C353        C  0.97335510  0.55158209  0.57932522    -0.06100
H354        H  0.94979397  0.57670637  0.55770156     0.07700
H355        H  0.98170236  0.54160021  0.58201066     0.08900
Cu356      Cu  0.94793533  0.59270201  0.59718514     0.44200
Cu357      Cu  0.97483955  0.56316701  0.61794142     0.42000
Cu358      Cu  0.95850896  0.59728302  0.64307893     0.43900
N359        N  0.93870704  0.61102822  0.61313063    -0.34700
N360        N  0.94258023  0.61281242  0.62990101    -0.29000
C361        C  0.93440720  0.62577644  0.63645936    -0.05100
C362        C  0.92488699  0.63246760  0.62315721     0.07100
C363        C  0.92797503  0.62275670  0.60855261     0.00900
H364        H  0.93521782  0.62984535  0.64999408     0.08600
H365        H  0.92294717  0.62412437  0.59546434     0.07700
N366        N  0.97371113  0.57941146  0.65357998    -0.36200
N367        N  0.97952002  0.56683165  0.64452575    -0.28400
C368        C  0.98808597  0.55705612  0.65543168    -0.03600
C369        C  0.98767420  0.56380244  0.67220958     0.05000
C370        C  0.97846612  0.57802065  0.67044302     0.03100
H371        H  0.99396484  0.54574776  0.65141458     0.08200
H372        H  0.97490645  0.58645607  0.68074518     0.07000
N373        N  0.93162365  0.54308620  0.14873701    -0.27300
N374        N  0.91778533  0.54786897  0.15604615    -0.35200
C375        C  0.91852964  0.54519367  0.17344303     0.01000
C376        C  0.93363037  0.53832668  0.17739515     0.07000
C377        C  0.94159671  0.53718720  0.16131014    -0.06100
H378        H  0.90867800  0.54798840  0.18241678     0.07700
H379        H  0.95362717  0.53220799  0.15876636     0.08900
Cu380      Cu  0.89830322  0.55719500  0.14198848     0.44200
Cu381      Cu  0.93571826  0.54419327  0.12190434     0.42000
Cu382      Cu  0.90158630  0.55825194  0.09464194     0.43900
N383        N  0.87997359  0.56557637  0.12563552    -0.34700
N384        N  0.88108091  0.56610938  0.10831853    -0.29000
C385        C  0.86721519  0.57260479  0.10176979    -0.05100
C386        C  0.85687397  0.57629740  0.11567671     0.07100
C387        C  0.86541261  0.57162383  0.13059412     0.00900
H388        H  0.86490745  0.57451197  0.08790919     0.08600
H389        H  0.86157559  0.57289471  0.14412344     0.07700
N390        N  0.92351687  0.54933585  0.08477494    -0.36200
N391        N  0.93591046  0.54446905  0.09467899    -0.28400
C392        C  0.94788149  0.53871432  0.08427489    -0.03600
C393        C  0.94280440  0.53989540  0.06692289     0.05000
C394        C  0.92727872  0.54675990  0.06778722     0.03100
H395        H  0.95915435  0.53342455  0.08913737     0.08200
H396        H  0.91911779  0.54941994  0.05695794     0.07000
N397        N  0.02938379  0.50559219  0.84798460    -0.27300
N398        N  0.04147388  0.49773653  0.84013859    -0.35200
C399        C  0.04141173  0.50162902  0.82293595     0.01000
C400        C  0.02860408  0.51250465  0.81975868     0.07000
C401        C  0.02129940  0.51467072  0.83606674    -0.06100
H402        H  0.05003491  0.49677176  0.81350495     0.07700
H403        H  0.01080862  0.52223110  0.83919415     0.08900
Cu404      Cu  0.05718582  0.48204454  0.85360182     0.44200
Cu405      Cu  0.02432004  0.50344573  0.87451726     0.42000
Cu406      Cu  0.04950695  0.47647977  0.90075759     0.43900
N407        N  0.07102491  0.46715525  0.87014082    -0.34700
N408        N  0.06817561  0.46506635  0.88710272    -0.29000
C409        C  0.07946719  0.45480969  0.89379521    -0.05100
C410        C  0.09003664  0.45023099  0.88043774     0.07100
C411        C  0.08425698  0.45831281  0.86562769     0.00900
H412        H  0.08008274  0.45127948  0.90748875     0.08600
H413        H  0.08923882  0.45784747  0.85247627     0.07700
N414        N  0.02998022  0.48960698  0.91076569    -0.36200
N415        N  0.02085312  0.49949565  0.90110598    -0.28400
C416        C  0.00920779  0.50618057  0.91126961    -0.03600
C417        C  0.01102494  0.50021707  0.92822145     0.05000
C418        C  0.02437048  0.48971216  0.92737776     0.03100
H419        H  0.00001530  0.51464382  0.90650090     0.08200
H420        H  0.02975597  0.48275947  0.93801424     0.07000
C421        C  0.13043298  0.25042594  0.36892210     0.80200
N422        N  0.14680987  0.25038233  0.37188626    -0.78100
C423        C  0.15502254  0.26455715  0.37529074     0.82600
N424        N  0.14659581  0.27896791  0.37589592    -0.78100
C425        C  0.13015402  0.27922207  0.37293432     0.82700
N426        N  0.12220854  0.26490566  0.36940367    -0.79800
C427        C  0.33160579  0.26004192  0.38943524     0.80200
N428        N  0.33914170  0.24535946  0.38667698    -0.78100
C429        C  0.33023909  0.23167423  0.38283839     0.82600
N430        N  0.31367986  0.23282784  0.38165180    -0.78100
C431        C  0.30597703  0.24741520  0.38423874     0.82700
N432        N  0.31503408  0.26094230  0.38815044    -0.79800
C433        C  0.17303345  0.26417568  0.37781137    -0.03200
C434        C  0.18190854  0.27857834  0.38155399    -0.05900
C435        C  0.19894313  0.27804269  0.38356087    -0.20900
C436        C  0.20748818  0.26315971  0.38175285     0.24800
C437        C  0.19854209  0.24869925  0.37837421    -0.18500
C438        C  0.18156955  0.24923542  0.37635824    -0.08500
C439        C  0.22560086  0.26312431  0.38395629    -0.18700
C440        C  0.23534832  0.25117307  0.37752851    -0.23500
C441        C  0.25343021  0.25070661  0.37977205     0.26800
C442        C  0.26150051  0.23567420  0.37716462    -0.20300
C443        C  0.27850454  0.23457988  0.37870181    -0.09900
C444        C  0.28790061  0.24855606  0.38278758    -0.10500
C445        C  0.27984650  0.26364804  0.38533819    -0.03400
C446        C  0.26281410  0.26473839  0.38381527    -0.18500
H447        H  0.17572126  0.29028315  0.38288565     0.10500
H448        H  0.20549433  0.28933013  0.38637719     0.10600
H449        H  0.20445396  0.23685001  0.37756801     0.10300
H450        H  0.17514764  0.23784767  0.37367428     0.11400
H451        H  0.23094217  0.27342062  0.39101122     0.11500
H452        H  0.22994734  0.24100652  0.37031658     0.13400
H453        H  0.25460151  0.22469029  0.37394780     0.09900
H454        H  0.28427341  0.22274874  0.37661476     0.12000
H455        H  0.28670609  0.27469158  0.38838242     0.08600
H456        H  0.25719405  0.27667095  0.38545075     0.11400
C457        C  0.95154539  0.53388378  0.05110237    -0.03200
C458        C  0.96825172  0.52978716  0.05197376    -0.05900
C459        C  0.97635349  0.52362970  0.03720772    -0.20900
C460        C  0.96801913  0.52156787  0.02122054     0.24800
C461        C  0.95126776  0.52552668  0.02034877    -0.18500
C462        C  0.94316988  0.53169924  0.03510574    -0.08500
C463        C  0.97711415  0.51510225  0.00582639    -0.18700
C464        C  0.97271650  0.51833569  0.98912855    -0.23500
C465        C  0.98241883  0.51304179  0.97368507     0.26800
C466        C  0.98129033  0.52228277  0.95820803    -0.20300
C467        C  0.99051366  0.51807915  0.94346151    -0.09900
C468        C  0.00099639  0.50439317  0.94380942    -0.10500
C469        C  0.00181500  0.49485133  0.95917965    -0.03400
C470        C  0.99258315  0.49908934  0.97397183    -0.18500
H471        H  0.97513828  0.53137977  0.06402115     0.10500
H472        H  0.98924966  0.52060708  0.03823715     0.10600
H473        H  0.94427046  0.52358690  0.00844829     0.10300
H474        H  0.93023871  0.53442815  0.03399417     0.11400
H475        H  0.98841939  0.50850487  0.00840412     0.11500
H476        H  0.96232449  0.52630550  0.98660365     0.13400
H477        H  0.97345098  0.53302086  0.95762063     0.09900
H478        H  0.98958130  0.52576158  0.93192372     0.12000
H479        H  0.00949622  0.48402814  0.95979332     0.08600
H480        H  0.99331463  0.49133318  0.98548152     0.11400
C481        C  0.02359391  0.51998407  0.80270116    -0.03200
C482        C  0.00986433  0.53039028  0.80171828    -0.05900
C483        C  0.00501980  0.53725207  0.78569222    -0.20900
C484        C  0.01364963  0.53383237  0.77018420     0.24800
C485        C  0.02755479  0.52366284  0.77114306    -0.18500
C486        C  0.03242422  0.51680551  0.78719484    -0.08500
C487        C  0.00805383  0.54151949  0.75346825    -0.18700
C488        C  0.01170036  0.53559002  0.73737426    -0.23500
C489        C  0.00580598  0.54322858  0.72075851     0.26800
C490        C  0.00458343  0.53349129  0.70555602    -0.20300
C491        C  0.99893886  0.54017387  0.68972303    -0.09900
C492        C  0.99445232  0.55682945  0.68872805    -0.10500
C493        C  0.99611517  0.56669039  0.70382888    -0.03400
C494        C  0.00177230  0.56001172  0.71964565    -0.18500
H495        H  0.00273366  0.53327269  0.81328459     0.10500
H496        H  0.99436670  0.54518481  0.78538929     0.10600
H497        H  0.03489585  0.52116033  0.75963199     0.10300
H498        H  0.04317910  0.50905513  0.78736812     0.11400
H499        H  0.99991300  0.55201568  0.75458792     0.11500
H500        H  0.01852396  0.52419321  0.73621848     0.13400
H501        H  0.00777099  0.52055852  0.70599263     0.09900
H502        H  0.99780066  0.53219473  0.67840672     0.12000
H503        H  0.99313402  0.57965065  0.70346215     0.08600
H504        H  0.00315328  0.56808874  0.73084727     0.11400
C505        C  0.12087385  0.29487270  0.37355721    -0.03200
C506        C  0.12811326  0.30932641  0.38012188    -0.05900
C507        C  0.11916242  0.32396818  0.38091917    -0.20900
C508        C  0.10291904  0.32455328  0.37489680     0.24800
C509        C  0.09562856  0.31007441  0.36845076    -0.18500
C510        C  0.10451040  0.29542538  0.36778249    -0.08500
C511        C  0.09372185  0.34025896  0.37606698    -0.18700
C512        C  0.08141119  0.34410699  0.36499287    -0.23500
C513        C  0.07183934  0.35960640  0.36606014     0.26800
C514        C  0.06332797  0.36495260  0.35109113    -0.20300
C515        C  0.05371812  0.37914939  0.35164121    -0.09900
C516        C  0.05226509  0.38831086  0.36727375    -0.10500
C517        C  0.06073488  0.38288433  0.38230800    -0.03400
C518        C  0.07037548  0.36869188  0.38174067    -0.18500
H519        H  0.14063924  0.30930765  0.38480402     0.10500
H520        H  0.12498831  0.33491467  0.38613153     0.10600
H521        H  0.08297222  0.30990973  0.36423244     0.10300
H522        H  0.09850177  0.28451569  0.36274742     0.11400
H523        H  0.09776608  0.34914168  0.38581778     0.11500
H524        H  0.07855038  0.33583266  0.35418897     0.13400
H525        H  0.06410741  0.35809817  0.33888340     0.09900
H526        H  0.04732887  0.38277875  0.33980759     0.12000
H527        H  0.05993084  0.38952656  0.39461241     0.08600
H528        H  0.07632850  0.36473161  0.39371479     0.11400
C529        C  0.93971814  0.53305212  0.19491272    -0.03200
C530        C  0.92940801  0.53344097  0.20970458    -0.05900
C531        C  0.93509064  0.52829428  0.22613604    -0.20900
C532        C  0.95114297  0.52249465  0.22816378     0.24800
C533        C  0.96160295  0.52245430  0.21348922    -0.18500
C534        C  0.95592726  0.52759201  0.19705255    -0.08500
C535        C  0.95650856  0.51667521  0.24576106    -0.18700
C536        C  0.96866261  0.50568587  0.24797143    -0.23500
C537        C  0.97355344  0.49882361  0.26529170     0.26800
C538        C  0.98239701  0.48406641  0.26553044    -0.20300
C539        C  0.98723208  0.47698502  0.28141451    -0.09900
C540        C  0.98343296  0.48456362  0.29753156    -0.10500
C541        C  0.97476986  0.49950659  0.29729154    -0.03400
C542        C  0.96992758  0.50659761  0.28136444    -0.18500
H543        H  0.91686111  0.53757517  0.20868062     0.10500
H544        H  0.92682991  0.52859682  0.23724662     0.10600
H545        H  0.97425958  0.51866935  0.21461878     0.10300
H546        H  0.96433182  0.52735385  0.18611114     0.11400
H547        H  0.94941990  0.52070499  0.25699812     0.11500
H548        H  0.97468133  0.50059131  0.23649866     0.13400
H549        H  0.98547342  0.47787797  0.25335223     0.09900
H550        H  0.99391734  0.46554520  0.28092925     0.12000
H551        H  0.97174296  0.50583998  0.30935646     0.08600
H552        H  0.96358348  0.51824635  0.28178032     0.11400
C553        C  0.96903163  0.54773899  0.54592742    -0.03200
C554        C  0.96251866  0.55461189  0.53045767    -0.05900
C555        C  0.96526784  0.54720727  0.51413536    -0.20900
C556        C  0.97472882  0.53289378  0.51284112     0.24800
C557        C  0.98100112  0.52580076  0.52829415    -0.18500
C558        C  0.97819488  0.53315636  0.54463589    -0.08500
C559        C  0.97731789  0.52543619  0.49524790    -0.18700
C560        C  0.99058719  0.51636878  0.49119697    -0.23500
C561        C  0.99322281  0.50850415  0.47375965     0.26800
C562        C  0.00451150  0.49556713  0.47255658    -0.20300
C563        C  0.00702905  0.48738904  0.45661676    -0.09900
C564        C  0.99836578  0.49201769  0.44141680    -0.10500
C565        C  0.98746172  0.50535148  0.44248785    -0.03400
C566        C  0.98495375  0.51353941  0.45843189    -0.18500
H567        H  0.95537639  0.56578510  0.53082132     0.10500
H568        H  0.96015856  0.55280380  0.50243968     0.10600
H569        H  0.98783079  0.51442120  0.52789157     0.10300
H570        H  0.98318555  0.52730519  0.55620760     0.11400
H571        H  0.96801595  0.52780447  0.48539541     0.11500
H572        H  0.99986104  0.51426150  0.50118286     0.13400
H573        H  0.01123322  0.49158422  0.48407393     0.09900
H574        H  0.01574053  0.47738560  0.45632866     0.12000
H575        H  0.98068339  0.50943593  0.43108468     0.08600
H576        H  0.97660943  0.52384484  0.45853280     0.11400
C577        C  0.91387329  0.64687792  0.62419144    -0.03200
C578        C  0.91536780  0.65828979  0.63800468    -0.05900
C579        C  0.90524923  0.67211693  0.63865557    -0.20900
C580        C  0.89327706  0.67466933  0.62570845     0.24800
C581        C  0.89174052  0.66325499  0.61189918    -0.18500
C582        C  0.90192440  0.64950727  0.61117146    -0.08500
C583        C  0.88309488  0.68969933  0.62650169    -0.18700
C584        C  0.86783412  0.69038792  0.61986355    -0.23500
C585        C  0.85778129  0.70551255  0.62029082     0.26800
C586        C  0.84068236  0.70408148  0.62065452    -0.20300
C587        C  0.83081879  0.71809688  0.62066567    -0.09900
C588        C  0.83788792  0.73384622  0.62001408    -0.10500
C589        C  0.85503763  0.73525397  0.61945960    -0.03400
C590        C  0.86489091  0.72123972  0.61959522    -0.18500
H591        H  0.92454117  0.65673930  0.64814812     0.10500
H592        H  0.90675618  0.68084094  0.64932471     0.10600
H593        H  0.88295147  0.66508286  0.60141762     0.10300
H594        H  0.90038396  0.64095537  0.60037579     0.11400
H595        H  0.88809685  0.70027093  0.63340923     0.11500
H596        H  0.86218756  0.67932780  0.61461061     0.13400
H597        H  0.83494458  0.69208244  0.62101638     0.09900
H598        H  0.81765611  0.71656038  0.62099379     0.12000
H599        H  0.86088441  0.74718574  0.61883494     0.08600
H600        H  0.87802466  0.72276487  0.61875359     0.11400
C601        C  0.78335105  0.75945281  0.62279626    -0.03200
C602        C  0.77628183  0.74452792  0.62809805    -0.05900
C603        C  0.75930706  0.74295404  0.62935683    -0.20900
C604        C  0.74898968  0.75618492  0.62521040     0.24800
C605        C  0.75607249  0.77124526  0.62021196    -0.18500
C606        C  0.77306297  0.77283176  0.61900930    -0.08500
C607        C  0.73101836  0.75369459  0.62656989    -0.18700
C608        C  0.71977597  0.76353639  0.61901605    -0.23500
C609        C  0.70190999  0.76048424  0.62031628     0.26800
C610        C  0.69110670  0.77380791  0.61884897    -0.20300
C611        C  0.67420135  0.77140950  0.62009324    -0.09900
C612        C  0.66774062  0.75556714  0.62261170    -0.10500
C613        C  0.67856531  0.74218004  0.62366975    -0.03400
C614        C  0.69544707  0.74458895  0.62249282    -0.18500
H615        H  0.78385496  0.73400663  0.63126574     0.10500
H616        H  0.75420228  0.73127468  0.63340863     0.10600
H617        H  0.74867543  0.78193331  0.61741389     0.10300
H618        H  0.77811691  0.78454433  0.61499379     0.11400
H619        H  0.72696086  0.74306464  0.63398312     0.11500
H620        H  0.72356770  0.77436119  0.61180274     0.13400
H621        H  0.69577909  0.78613700  0.61694332     0.09900
H622        H  0.66620890  0.78198787  0.61907648     0.12000
H623        H  0.67401991  0.72978724  0.62543661     0.08600
H624        H  0.70332141  0.73391871  0.62299643     0.11400
C625        C  0.98082303  0.03922486  0.91061526    -0.03200
C626        C  0.98390277  0.04797742  0.92622571    -0.05900
C627        C  0.97830836  0.04209136  0.94235313    -0.20900
C628        C  0.96943518  0.02735443  0.94334174     0.24800
C629        C  0.96628447  0.01856032  0.92771412    -0.18500
C630        C  0.97185464  0.02450009  0.91152891    -0.08500
C631        C  0.96419638  0.02157928  0.96100526    -0.18700
C632        C  0.95297423  0.00972975  0.96380020    -0.23500
C633        C  0.94762940  0.00480580  0.98170498     0.26800
C634        C  0.93203692  0.99786932  0.98382299    -0.20300
C635        C  0.92633927  0.99360538  0.00052395    -0.09900
C636        C  0.93618300  0.99608263  0.01550135    -0.10500
C637        C  0.95199854  0.00255802  0.01330359    -0.03400
C638        C  0.95770422  0.00679022  0.99660423    -0.18500
H639        H  0.99062330  0.05943832  0.92606762     0.10500
H640        H  0.98095247  0.04911604  0.95413974     0.10600
H641        H  0.95986296  0.00694593  0.92784274     0.10300
H642        H  0.96943425  0.01732816  0.89980555     0.11400
H643        H  0.96935547  0.02802610  0.97222641     0.11500
H644        H  0.94665868  0.00412791  0.95276266     0.13400
H645        H  0.92410220  0.99604608  0.97255680     0.09900
H646        H  0.91409306  0.98865642  0.00164675     0.12000
H647        H  0.96006728  0.00429822  0.02445456     0.08600
H648        H  0.97005935  0.01144479  0.99546347     0.11400
C649        C  0.89325918  0.88933327  0.58947263    -0.03200
C650        C  0.89404457  0.87751125  0.57602694    -0.05900
C651        C  0.88535643  0.86279102  0.57745362    -0.20900
C652        C  0.87550743  0.85972592  0.59217195     0.24800
C653        C  0.87464505  0.87161471  0.60560459    -0.18500
C654        C  0.88346855  0.88626437  0.60425799    -0.08500
C655        C  0.86722197  0.84358918  0.59360213    -0.18700
C656        C  0.85389185  0.84102560  0.60358495    -0.23500
C657        C  0.84649669  0.82454995  0.60592245     0.26800
C658        C  0.82987899  0.82334342  0.61030979    -0.20300
C659        C  0.82270134  0.80800630  0.61326827    -0.09900
C660        C  0.83210498  0.79357130  0.61213301    -0.10500
C661        C  0.84877686  0.79481273  0.60782742    -0.03400
C662        C  0.85591559  0.81012143  0.60478936    -0.18500
H663        H  0.90167680  0.87944090  0.56460287     0.10500
H664        H  0.88639583  0.85372917  0.56706202     0.10600
H665        H  0.86758237  0.86949596  0.61739715     0.10300
H666        H  0.88263168  0.89517225  0.61480337     0.11400
H667        H  0.87214702  0.83355327  0.58581246     0.11500
H668        H  0.84790265  0.85134190  0.60995794     0.13400
H669        H  0.82242691  0.83430593  0.61144491     0.09900
H670        H  0.80984278  0.80749544  0.61663327     0.12000
H671        H  0.85639824  0.78395375  0.60692158     0.08600
H672        H  0.86888446  0.81059736  0.60202609     0.11400
C673        C  0.96354401  0.98797809  0.65422794    -0.03200
C674        C  0.97024424  0.00387948  0.65335995    -0.05900
C675        C  0.97557531  0.01186719  0.66862847    -0.20900
C676        C  0.97422720  0.00420228  0.68506353     0.24800
C677        C  0.96774934  0.98818809  0.68589491    -0.18500
C678        C  0.96238218  0.98022563  0.67065730    -0.08500
C679        C  0.98010221  0.01299043  0.70100503    -0.18700
C680        C  0.97409570  0.00994573  0.71714923    -0.23500
C681        C  0.97976867  0.01833175  0.73341825     0.26800
C682        C  0.96960006  0.01792627  0.74824161    -0.20300
C683        C  0.97458772  0.02504967  0.76408543    -0.09900
C684        C  0.98996775  0.03269270  0.76552982    -0.10500
C685        C  0.00018449  0.03313411  0.75067146    -0.03400
C686        C  0.99518706  0.02597707  0.73479231    -0.18500
H687        H  0.97123676  0.01024760  0.64093787     0.10500
H688        H  0.98063490  0.02415465  0.66761920     0.10600
H689        H  0.96709326  0.98160191  0.69821058     0.10300
H690        H  0.95759804  0.96786626  0.67176271     0.11400
H691        H  0.98903364  0.02271533  0.69917628     0.11500
H692        H  0.96403746  0.00131872  0.71854954     0.13400
H693        H  0.95769654  0.01204247  0.74757484     0.09900
H694        H  0.96632387  0.02456875  0.77516133     0.12000
H695        H  0.01221134  0.03869255  0.75135460     0.08600
H696        H  0.00361039  0.02612122  0.72385108     0.11400
C697        C  0.12166198  0.23483252  0.36528211    -0.03200
C698        C  0.13017711  0.21981038  0.36494276    -0.05900
C699        C  0.12184880  0.20507222  0.36189481    -0.20900
C700        C  0.10490709  0.20501869  0.35892538     0.24800
C701        C  0.09636523  0.22002144  0.35919507    -0.18500
C702        C  0.10466654  0.23476280  0.36232271    -0.08500
C703        C  0.09636283  0.18907432  0.35670069    -0.18700
C704        C  0.08223348  0.18744265  0.34775041    -0.23500
C705        C  0.07335525  0.17160961  0.34641045     0.26800
C706        C  0.06381877  0.16838816  0.33144928    -0.20300
C707        C  0.05493012  0.15375958  0.33002865    -0.09900
C708        C  0.05517255  0.14217874  0.34372263    -0.10500
C709        C  0.06460248  0.14551115  0.35880609    -0.03400
C710        C  0.07361628  0.16006133  0.36013724    -0.18500
H711        H  0.14325730  0.21939080  0.36718203     0.10500
H712        H  0.12867192  0.19364544  0.36188769     0.10600
H713        H  0.08321757  0.22039721  0.35749514     0.10300
H714        H  0.09770514  0.24608146  0.36261567     0.11400
H715        H  0.10217613  0.17823843  0.36223825     0.11500
H716        H  0.07724863  0.19787384  0.34063483     0.13400
H717        H  0.06328958  0.17720222  0.32080036     0.09900
H718        H  0.04765496  0.15169839  0.31832578     0.12000
H719        H  0.06508747  0.13688123  0.36959735     0.08600
H720        H  0.08047581  0.16238991  0.37208388     0.11400
C721        C  0.98843528  0.04936112  0.26477489    -0.03200
C722        C  0.98688165  0.03233813  0.26209407    -0.05900
C723        C  0.98132352  0.02618216  0.24597161    -0.20900
C724        C  0.97676763  0.03692724  0.23243545     0.24800
C725        C  0.97840932  0.05395942  0.23503924    -0.18500
C726        C  0.98433255  0.06011029  0.25102506    -0.08500
C727        C  0.97059165  0.03009107  0.21562168    -0.18700
C728        C  0.95821082  0.03711323  0.20670341    -0.23500
C729        C  0.95147285  0.02996296  0.19029072     0.26800
C730        C  0.93458288  0.03095749  0.18709016    -0.20300
C731        C  0.92786072  0.02415526  0.17180080    -0.09900
C732        C  0.93798333  0.01672281  0.15919619    -0.10500
C733        C  0.95494974  0.01616075  0.16212386    -0.03400
C734        C  0.96162866  0.02257173  0.17764702    -0.18500
H735        H  0.99014032  0.02376806  0.27239407     0.10500
H736        H  0.98028646  0.01300846  0.24416979     0.10600
H737        H  0.97529294  0.06250064  0.22465833     0.10300
H738        H  0.98540997  0.07328329  0.25273893     0.11400
H739        H  0.97552737  0.01841896  0.21116017     0.11500
H740        H  0.95209700  0.04778101  0.21222334     0.13400
H741        H  0.92657509  0.03673549  0.19657616     0.09900
H742        H  0.91474020  0.02485973  0.16973691     0.12000
H743        H  0.96297058  0.01046744  0.15259999     0.08600
H744        H  0.97475764  0.02194809  0.17963777     0.11400
C745        C  0.96231779  0.97899288  0.51016098    -0.03200
C746        C  0.95409368  0.97461093  0.49457971    -0.05900
C747        C  0.95892612  0.98117516  0.47843008    -0.20900
C748        C  0.97196334  0.99236361  0.47748501     0.24800
C749        C  0.98055987  0.99634627  0.49297287    -0.18500
C750        C  0.97575020  0.98976956  0.50911669    -0.08500
C751        C  0.97623911  0.99953682  0.46014302    -0.18700
C752        C  0.98333877  0.01439636  0.45840678    -0.23500
C753        C  0.98711540  0.02227216  0.44124705     0.26800
C754        C  0.99799398  0.03561371  0.44114307    -0.20300
C755        C  0.00174661  0.04372182  0.42550131    -0.09900
C756        C  0.99463026  0.03875586  0.40949184    -0.10500
C757        C  0.98360452  0.02547054  0.40958598    -0.03400
C758        C  0.97984055  0.01734112  0.42526982    -0.18500
H759        H  0.94372130  0.96634320  0.49481810     0.10500
H760        H  0.95221382  0.97777295  0.46666518     0.10600
H761        H  0.99110827  0.00439291  0.49270262     0.10300
H762        H  0.98264720  0.99313110  0.52073988     0.11400
H763        H  0.97279199  0.99252836  0.44857176     0.11500
H764        H  0.98650910  0.02134372  0.47013403     0.13400
H765        H  0.00369123  0.03976673  0.45324253     0.09900
H766        H  0.01032696  0.05383689  0.42606859     0.12000
H767        H  0.97769504  0.02141022  0.39759508     0.08600
H768        H  0.97099058  0.00747005  0.42474431     0.11400
C769        C  0.19487836  0.36843436  0.89643945    -0.03200
C770        C  0.17966843  0.36048513  0.89821443    -0.05900
C771        C  0.16508966  0.36950197  0.89772317    -0.20900
C772        C  0.16540848  0.38657430  0.89519575     0.24800
C773        C  0.18061984  0.39455230  0.89368649    -0.18500
C774        C  0.19516009  0.38558208  0.89425914    -0.08500
C775        C  0.14976844  0.39583537  0.89456138    -0.18700
C776        C  0.14813367  0.40979362  0.88524406    -0.23500
C777        C  0.13279936  0.41949836  0.88425418     0.26800
C778        C  0.13063118  0.43008783  0.86991728    -0.20300
C779        C  0.11669449  0.43991523  0.86862034    -0.09900
C780        C  0.10465418  0.43952496  0.88176944    -0.10500
C781        C  0.10686213  0.42901245  0.89624527    -0.03400
C782        C  0.12079611  0.41907956  0.89748946    -0.18500
H783        H  0.17900599  0.34730692  0.90004351     0.10500
H784        H  0.15353184  0.36311035  0.89910682     0.10600
H785        H  0.18137971  0.40776342  0.89234115     0.10300
H786        H  0.20663801  0.39214131  0.89299172     0.11400
H787        H  0.13924275  0.39056936  0.90116045     0.11500
H788        H  0.15829939  0.41401057  0.87726683     0.13400
H789        H  0.13977785  0.43077954  0.85965853     0.09900
H790        H  0.11555266  0.44801141  0.85742582     0.12000
H791        H  0.09783777  0.42840886  0.90661516     0.08600
H792        H  0.12225694  0.41140708  0.90898476     0.11400
C793        C  0.18291000  0.15177823  0.85756090    -0.03200
C794        C  0.18208100  0.13478740  0.85426384    -0.05900
C795        C  0.16712243  0.12731071  0.85018259    -0.20900
C796        C  0.15266038  0.13658603  0.84945131     0.24800
C797        C  0.15353148  0.15365093  0.85228807    -0.18500
C798        C  0.16847523  0.16113467  0.85634135    -0.08500
C799        C  0.13697653  0.12807403  0.84552365    -0.18700
C800        C  0.12230321  0.13379573  0.85077843    -0.23500
C801        C  0.10679604  0.12464708  0.84792998     0.26800
C802        C  0.09392234  0.12687493  0.85987817    -0.20300
C803        C  0.07933825  0.11805308  0.85800007    -0.09900
C804        C  0.07721778  0.10704944  0.84391697    -0.10500
C805        C  0.08988979  0.10521340  0.83161318    -0.03400
C806        C  0.10455624  0.11390196  0.83360188    -0.18500
H807        H  0.19295564  0.12721636  0.85496745     0.10500
H808        H  0.16680688  0.11416883  0.84786619     0.10600
H809        H  0.14276317  0.16131453  0.85122390     0.10300
H810        H  0.16867390  0.17428696  0.85855969     0.11400
H811        H  0.13770618  0.11611802  0.83921524     0.11500
H812        H  0.12168072  0.14491927  0.85864443     0.13400
H813        H  0.09527095  0.13523334  0.87088678     0.09900
H814        H  0.06970102  0.11992064  0.86754847     0.12000
H815        H  0.08861427  0.09684144  0.82062276     0.08600
H816        H  0.11402954  0.11225879  0.82383690     0.11400
C817        C  0.21358063  0.20141553  0.87453495    -0.03200
C818        C  0.19901308  0.21058442  0.87374939    -0.05900
C819        C  0.19916969  0.22751421  0.87671813    -0.20900
C820        C  0.21382499  0.23572623  0.88068223     0.24800
C821        C  0.22844836  0.22659323  0.88152966    -0.18500
C822        C  0.22829680  0.20960940  0.87853180    -0.08500
C823        C  0.21329146  0.25385870  0.88302139    -0.18700
C824        C  0.22482243  0.26262619  0.89160512    -0.23500
C825        C  0.22419749  0.28081815  0.89357361     0.26800
C826        C  0.23878046  0.28931870  0.89721037    -0.20300
C827        C  0.23886283  0.30644257  0.89872298    -0.09900
C828        C  0.22430025  0.31546978  0.89678958    -0.10500
C829        C  0.20960785  0.30693223  0.89368229    -0.03400
C830        C  0.20953234  0.28981685  0.89213927    -0.18500
H831        H  0.18743529  0.20472237  0.87071436     0.10500
H832        H  0.18775326  0.23424418  0.87589082     0.10600
H833        H  0.24008545  0.23248385  0.88403804     0.10300
H834        H  0.23976100  0.20295051  0.87911841     0.11400
H835        H  0.20280135  0.26010419  0.87739873     0.11500
H836        H  0.23536448  0.25640425  0.89715047     0.13400
H837        H  0.25020761  0.28270396  0.89861172     0.09900
H838        H  0.25039171  0.31260163  0.90130310     0.12000
H839        H  0.19814269  0.31347160  0.89228911     0.08600
H840        H  0.19789152  0.28377493  0.89002413     0.11400
C841        C  0.33840849  0.21558926  0.38018583    -0.03200
C842        C  0.35550840  0.21457456  0.37840358    -0.05900
C843        C  0.36312957  0.19935096  0.37597549    -0.20900
C844        C  0.35388782  0.18480901  0.37550938     0.24800
C845        C  0.33675098  0.18583557  0.37703545    -0.18500
C846        C  0.32912616  0.20104310  0.37937126    -0.08500
C847        C  0.36249276  0.16886025  0.37323907    -0.18700
C848        C  0.35632440  0.15450749  0.37901618    -0.23500
C849        C  0.36533314  0.13871078  0.37806957     0.26800
C850        C  0.36177817  0.12659410  0.39056939    -0.20300
C851        C  0.37019538  0.11168921  0.39054074    -0.09900
C852        C  0.38221869  0.10845260  0.37782392    -0.10500
C853        C  0.38544654  0.12035829  0.36491775    -0.03400
C854        C  0.37710698  0.13538493  0.36504951    -0.18500
H855        H  0.36301454  0.22554156  0.37881810     0.10500
H856        H  0.37633323  0.19891515  0.37467240     0.10600
H857        H  0.32912940  0.17498760  0.37618443     0.10300
H858        H  0.31591887  0.20136809  0.38059603     0.11400
H859        H  0.37476489  0.16917370  0.36779204     0.11500
H860        H  0.34476938  0.15443962  0.38603010     0.13400
H861        H  0.35262618  0.12877389  0.40059270     0.09900
H862        H  0.36719147  0.10267948  0.40047806     0.12000
H863        H  0.39460109  0.11820196  0.35491128     0.08600
H864        H  0.37981159  0.14426864  0.35488732     0.11400
C865        C  0.53351132  0.86254570  0.63706500    -0.03200
C866        C  0.53463716  0.85242903  0.65198083    -0.05900
C867        C  0.54486976  0.83866791  0.65194977    -0.20900
C868        C  0.55436701  0.83489113  0.63714671     0.24800
C869        C  0.55310132  0.84488387  0.62213557    -0.18500
C870        C  0.54280638  0.85857454  0.62212212    -0.08500
C871        C  0.56517379  0.82026652  0.63762537    -0.18700
C872        C  0.57902216  0.81922793  0.62812700    -0.23500
C873        C  0.59010967  0.80481326  0.62854359     0.26800
C874        C  0.60654373  0.80699976  0.62376825    -0.20300
C875        C  0.61732427  0.79368948  0.62348823    -0.09900
C876        C  0.61181498  0.77782970  0.62775656    -0.10500
C877        C  0.59532164  0.77561830  0.63246798    -0.03400
C878        C  0.58456521  0.78895430  0.63285254    -0.18500
H879        H  0.52748608  0.85498835  0.66361712     0.10500
H880        H  0.54549067  0.83104162  0.66358891     0.10600
H881        H  0.55984045  0.84205217  0.61028138     0.10300
H882        H  0.54224644  0.86607758  0.61041267     0.11400
H883        H  0.56207992  0.81056989  0.64681472     0.11500
H884        H  0.58288782  0.82968654  0.62032516     0.13400
H885        H  0.61107115  0.81906921  0.62025407     0.09900
H886        H  0.62991911  0.79581411  0.61970651     0.12000
H887        H  0.59066180  0.76355236  0.63577928     0.08600
H888        H  0.57188692  0.78669053  0.63611133     0.11400
C889        C  0.46656871  0.95662923  0.56241530    -0.03200
C890        C  0.46931714  0.94791385  0.54671855    -0.05900
C891        C  0.46519456  0.95475147  0.53047588    -0.20900
C892        C  0.45812271  0.97042796  0.52944348     0.24800
C893        C  0.45546355  0.97926450  0.54512434    -0.18500
C894        C  0.45959737  0.97240344  0.56140612    -0.08500
C895        C  0.45419632  0.97707789  0.51171054    -0.18700
C896        C  0.44407866  0.98985628  0.50873365    -0.23500
C897        C  0.44043532  0.99618307  0.49081859     0.26800
C898        C  0.43551800  0.01260304  0.48893617    -0.20300
C899        C  0.43213793  0.01908064  0.47230916    -0.09900
C900        C  0.43354901  0.00922379  0.45719008    -0.10500
C901        C  0.43814459  0.99270031  0.45907830    -0.03400
C902        C  0.44144286  0.98619435  0.47570930    -0.18500
H903        H  0.47457656  0.93571229  0.54687556     0.10500
H904        H  0.46746461  0.94769326  0.51864148     0.10600
H905        H  0.45050631  0.99157525  0.54498452     0.10300
H906        H  0.45751020  0.97960844  0.57316444     0.11400
H907        H  0.45992284  0.97098276  0.50061981     0.11500
H908        H  0.43846118  0.99625007  0.51968033     0.13400
H909        H  0.43451241  0.02051973  0.50035695     0.09900
H910        H  0.42869596  0.03188257  0.47130823     0.12000
H911        H  0.43898550  0.98469925  0.44771822     0.08600
H912        H  0.44451197  0.97330813  0.47663427     0.11400
C913        C  0.48753467  0.96963908  0.20277465    -0.03200
C914        C  0.47062542  0.97228248  0.20450005    -0.05900
C915        C  0.46400003  0.97714795  0.22059379    -0.20900
C916        C  0.47406495  0.97950982  0.23536802     0.24800
C917        C  0.49099366  0.97653962  0.23374199    -0.18500
C918        C  0.49760744  0.97156120  0.21763942    -0.08500
C919        C  0.46645869  0.98605673  0.25170712    -0.18700
C920        C  0.47405833  0.98696726  0.26742346    -0.23500
C921        C  0.46655572  0.99472381  0.28317781     0.26800
C922        C  0.47264834  0.99065879  0.29987358    -0.20300
C923        C  0.46622436  0.99798994  0.31499393    -0.09900
C924        C  0.45366539  0.00972364  0.31370910    -0.10500
C925        C  0.44770235  0.01397545  0.29699657    -0.03400
C926        C  0.45407808  0.00660614  0.28188704    -0.18500
H927        H  0.46246803  0.97070875  0.19338956     0.10500
H928        H  0.45093163  0.97933561  0.22141864     0.10600
H929        H  0.49933779  0.97849777  0.24457939     0.10300
H930        H  0.51070745  0.96977086  0.21673604     0.11400
H931        H  0.45388963  0.99025263  0.25061790     0.11500
H932        H  0.48608762  0.98157786  0.26912303     0.13400
H933        H  0.48242562  0.98173918  0.30123609     0.09900
H934        H  0.47126152  0.99461915  0.32764389     0.12000
H935        H  0.43802434  0.02296270  0.29553982     0.08600
H936        H  0.44940769  0.01055850  0.26928365     0.11400
C937        C  0.34370220  0.09323735  0.88166980    -0.03200
C938        C  0.33877443  0.10203663  0.89667337    -0.05900
C939        C  0.32437808  0.11134541  0.89644301    -0.20900
C940        C  0.31449038  0.11188900  0.88133307     0.24800
C941        C  0.31952566  0.10322764  0.86625226    -0.18500
C942        C  0.33393780  0.09400362  0.86645044    -0.08500
C943        C  0.29936763  0.12204243  0.88152793    -0.18700
C944        C  0.28651496  0.11923942  0.87079387    -0.23500
C945        C  0.27141382  0.12940494  0.87074207     0.26800
C946        C  0.25685248  0.12247662  0.86430409    -0.20300
C947        C  0.24243872  0.13169514  0.86363371    -0.09900
C948        C  0.24230465  0.14819312  0.86919618    -0.10500
C949        C  0.25694315  0.15520340  0.87548392    -0.03400
C950        C  0.27134691  0.14593516  0.87623713    -0.18500
H951        H  0.34610642  0.10188716  0.90853743     0.10500
H952        H  0.32089168  0.11807808  0.90817075     0.10600
H953        H  0.31256226  0.10374144  0.85415511     0.10300
H954        H  0.33731745  0.08737275  0.85465402     0.11400
H955        H  0.29858505  0.13168501  0.89139809     0.11500
H956        H  0.28665818  0.10859449  0.86214214     0.13400
H957        H  0.25660595  0.10981469  0.85981496     0.09900
H958        H  0.23143964  0.12590760  0.85862361     0.12000
H959        H  0.25732097  0.16790524  0.87976453     0.08600
H960        H  0.28243215  0.15188463  0.88076259     0.11400
C961        C  0.46816209  0.96091328  0.70776368    -0.03200
C962        C  0.47188044  0.95381194  0.72413823    -0.05900
C963        C  0.46858583  0.96222264  0.73977180    -0.20900
C964        C  0.46137013  0.97785490  0.73946256     0.24800
C965        C  0.45791955  0.98513484  0.72310172    -0.18500
C966        C  0.46121038  0.97672247  0.70746336    -0.08500
C967        C  0.45783268  0.98615581  0.75645847    -0.18700
C968        C  0.44648967  0.99804441  0.75827942    -0.23500
C969        C  0.44218634  0.00566587  0.77543122     0.26800
C970        C  0.42696129  0.01349449  0.77702993    -0.20300
C971        C  0.42227181  0.02070602  0.79291884    -0.09900
C972        C  0.43274646  0.02029818  0.80758835    -0.10500
C973        C  0.44810233  0.01268133  0.80594828    -0.03400
C974        C  0.45283238  0.00552805  0.79001797    -0.18500
H975        H  0.47725670  0.94169660  0.72499701     0.10500
H976        H  0.47150435  0.95639276  0.75217592     0.10600
H977        H  0.45291170  0.99740310  0.72223345     0.10300
H978        H  0.45840763  0.98276196  0.69516791     0.11400
H979        H  0.46406031  0.98145231  0.76801145     0.11500
H980        H  0.43922320  0.00168073  0.74698203     0.13400
H981        H  0.41856662  0.01386131  0.76600200     0.09900
H982        H  0.41030693  0.02635440  0.79372657     0.12000
H983        H  0.45657274  0.01240612  0.81689553     0.08600
H984        H  0.46490959  0.00014888  0.78919861     0.11400
C985        C  0.43794473  0.01953784  0.95157772    -0.03200
C986        C  0.44923951  0.00654302  0.95063736    -0.05900
C987        C  0.45724886  0.00098771  0.96571076    -0.20900
C988        C  0.45410782  0.00811973  0.98215412     0.24800
C989        C  0.44273843  0.02109831  0.98319256    -0.18500
C990        C  0.43469036  0.02667550  0.96805952    -0.08500
C991        C  0.46322809  0.00176932  0.99765645    -0.18700
C992        C  0.45844072  0.00392813  0.01443524    -0.23500
C993        C  0.46708171  0.99647566  0.02970002     0.26800
C994        C  0.45843923  0.99432312  0.04543722    -0.20300
C995        C  0.46594114  0.98716941  0.06006672    -0.09900
C996        C  0.48238296  0.98209177  0.05934766    -0.10500
C997        C  0.49111712  0.98440985  0.04364072    -0.03400
C998        C  0.48361809  0.99160505  0.02901242    -0.18500
H999        H  0.45196244  0.00058625  0.93827003     0.10500
H1000       H  0.46594087  0.99098704  0.96450082     0.10600
H1001       H  0.44024927  0.02725486  0.99550654     0.10300
H1002       H  0.42621083  0.03681786  0.96926783     0.11400
H1003       H  0.47377436  0.99408355  0.99492327     0.11500
H1004       H  0.44712901  0.01043173  0.01715970     0.13400
H1005       H  0.44571432  0.99804274  0.04637976     0.09900
H1006       H  0.45877655  0.98554696  0.07186222     0.12000
H1007       H  0.50388045  0.98093139  0.04265550     0.08600
H1008       H  0.49092893  0.99355061  0.01738536     0.11400
C1009       C  0.84132038  0.94146131  0.09996885    -0.03200
C1010       C  0.83093600  0.94397577  0.11443450    -0.05900
C1011       C  0.81667518  0.93466083  0.11632052    -0.20900
C1012       C  0.81265686  0.92247616  0.10397644     0.24800
C1013       C  0.82303352  0.91996990  0.08947677    -0.18500
C1014       C  0.83721522  0.92937221  0.08750659    -0.08500
C1015       C  0.79719877  0.91314897  0.10611897    -0.18700
C1016       C  0.79512793  0.89782582  0.09980303    -0.23500
C1017       C  0.77950014  0.88862146  0.10111711     0.26800
C1018       C  0.77985252  0.87141909  0.10001377    -0.20300
C1019       C  0.76533973  0.86232334  0.10027940    -0.09900
C1020       C  0.75010485  0.87028015  0.10147888    -0.10500
C1021       C  0.74976010  0.88753112  0.10263385    -0.03400
C1022       C  0.76428252  0.89661235  0.10241121    -0.18500
H1023       H  0.83364643  0.95332886  0.12415107     0.10500
H1024       H  0.80877015  0.93694843  0.12748475     0.10600
H1025       H  0.82007194  0.91102153  0.07940503     0.10300
H1026       H  0.84497026  0.92710783  0.07624772     0.11400
H1027       H  0.78750209  0.91890915  0.11367436     0.11500
H1028       H  0.80542692  0.89150243  0.09383685     0.13400
H1029       H  0.79141480  0.86498473  0.09887508     0.09900
H1030       H  0.76607836  0.84906524  0.09936679     0.12000
H1031       H  0.73825413  0.89407490  0.10347824     0.08600
H1032       H  0.76346155  0.90987873  0.10274824     0.11400
C1033       C  0.58637248  0.91720521  0.12118289    -0.03200
C1034       C  0.59189659  0.90718655  0.13501288    -0.05900
C1035       C  0.60641848  0.89820732  0.13337435    -0.20900
C1036       C  0.61585431  0.89927777  0.11801427     0.24800
C1037       C  0.61024312  0.90916272  0.10410573    -0.18500
C1038       C  0.59567047  0.91801433  0.10568070    -0.08500
C1039       C  0.63124510  0.88964441  0.11671563    -0.18700
C1040       C  0.64403692  0.89450741  0.10685617    -0.23500
C1041       C  0.65964146  0.88524102  0.10577884     0.26800
C1042       C  0.67412926  0.89388831  0.10229993    -0.20300
C1043       C  0.68908439  0.88564439  0.10113511    -0.09900
C1044       C  0.68983887  0.86848350  0.10312188    -0.10500
C1045       C  0.67525448  0.85976205  0.10622555    -0.03400
C1046       C  0.66030409  0.86805183  0.10758381    -0.18500
H1047       H  0.58491507  0.90610311  0.14705026     0.10500
H1048       H  0.61038165  0.89053665  0.14418734     0.10600
H1049       H  0.61693555  0.90990664  0.09185722     0.10300
H1050       H  0.59179130  0.92559943  0.09478040     0.11400
H1051       H  0.63238513  0.87878732  0.12489258     0.11500
H1052       H  0.64350002  0.90624635  0.10012987     0.13400
H1053       H  0.67390337  0.90710764  0.10067017     0.09900
H1054       H  0.70004153  0.89273930  0.09858582     0.12000
H1055       H  0.67538161  0.84653054  0.10770283     0.08600
H1056       H  0.64928916  0.86095222  0.10975499     0.11400
C1057       C  0.74555366  0.64928805  0.11189029    -0.03200
C1058       C  0.76013294  0.65745773  0.10739735    -0.05900
C1059       C  0.77464728  0.64864140  0.10501411    -0.20900
C1060       C  0.77492579  0.63153795  0.10723154     0.24800
C1061       C  0.76024388  0.62327928  0.11108923    -0.18500
C1062       C  0.74573949  0.63207052  0.11345817    -0.08500
C1063       C  0.79070554  0.62267849  0.10558035    -0.18700
C1064       C  0.79403090  0.60899419  0.11485119    -0.23500
C1065       C  0.81010716  0.60054864  0.11445760     0.26800
C1066       C  0.81471714  0.59101825  0.12899442    -0.20300
C1067       C  0.82983732  0.58303785  0.12932487    -0.09900
C1068       C  0.84060217  0.58425717  0.11499950    -0.10500
C1069       C  0.83581234  0.59343418  0.10022823    -0.03400
C1070       C  0.82071874  0.60152022  0.09995172    -0.18500
H1071       H  0.76041203  0.67069438  0.10598077     0.10500
H1072       H  0.78577925  0.65524562  0.10185840     0.10600
H1073       H  0.75990107  0.61002967  0.11223739     0.10300
H1074       H  0.73467704  0.62534433  0.11658456     0.11400
H1075       H  0.80020331  0.62833901  0.09768722     0.11500
H1076       H  0.78502511  0.60440233  0.12409568     0.13400
H1077       H  0.80668276  0.58991682  0.14024013     0.09900
H1078       H  0.83302843  0.57586461  0.14079763     0.12000
H1079       H  0.84380828  0.59460842  0.08898432     0.08600
H1080       H  0.81737100  0.60835470  0.08829266     0.11400
C1081       C  0.71481616  0.70152003  0.11141326    -0.03200
C1082       C  0.70022389  0.71024549  0.11428670    -0.05900
C1083       C  0.69959489  0.72720901  0.11170882    -0.20900
C1084       C  0.71348752  0.73592960  0.10616590     0.24800
C1085       C  0.72807736  0.72716386  0.10303602    -0.18500
C1086       C  0.72869480  0.71015388  0.10560220    -0.08500
C1087       C  0.71221577  0.75413810  0.10473895    -0.18700
C1088       C  0.72377867  0.76397694  0.09775504    -0.23500
C1089       C  0.72255302  0.78221471  0.09774795     0.26800
C1090       C  0.73700905  0.79149659  0.09679374    -0.20300
C1091       C  0.73649680  0.80865931  0.09738817    -0.09900
C1092       C  0.72145701  0.81695806  0.09880671    -0.10500
C1093       C  0.70694027  0.80767558  0.09924347    -0.03400
C1094       C  0.70745677  0.79051542  0.09864928    -0.18500
H1095       H  0.68925890  0.70401490  0.11871596     0.10500
H1096       H  0.68820172  0.73358127  0.11424799     0.10600
H1097       H  0.73919792  0.73326488  0.09901601     0.10300
H1098       H  0.74014574  0.70381930  0.10328127     0.11400
H1099       H  0.70129138  0.75965451  0.11027203     0.11500
H1100       H  0.73494773  0.75874808  0.09252751     0.13400
H1101       H  0.74878264  0.78543542  0.09589651     0.09900
H1102       H  0.74792427  0.81540082  0.09685663     0.12000
H1103       H  0.69512500  0.81365098  0.10009702     0.08600
H1104       H  0.69597839  0.78389211  0.09871692     0.11400
C1105       C  0.57098587  0.61500312  0.64754153    -0.03200
C1106       C  0.56960384  0.62655759  0.66123330    -0.05900
C1107       C  0.57585855  0.64242397  0.65930909    -0.20900
C1108       C  0.58379243  0.64708614  0.64377323     0.24800
C1109       C  0.58525411  0.63556471  0.63005555    -0.18500
C1110       C  0.57896551  0.61969294  0.63195661    -0.08500
C1111       C  0.58979093  0.66421896  0.64214891    -0.18700
C1112       C  0.60204885  0.66864948  0.63135188    -0.23500
C1113       C  0.60817370  0.68576629  0.63023111     0.26800
C1114       C  0.62453954  0.68846338  0.62552271    -0.20300
C1115       C  0.63080741  0.70441664  0.62458470    -0.09900
C1116       C  0.62072589  0.71803090  0.62808669    -0.10500
C1117       C  0.60421609  0.71532833  0.63239631    -0.03400
C1118       C  0.59798781  0.69937218  0.63344513    -0.18500
H1119       H  0.56348106  0.62351322  0.67338988     0.10500
H1120       H  0.57448157  0.65111385  0.67002717     0.10600
H1121       H  0.59088847  0.63882914  0.61768300     0.10300
H1122       H  0.58029754  0.61118733  0.62110466     0.11400
H1123       H  0.58446103  0.67331473  0.65088770     0.11500
H1124       H  0.60854342  0.65933258  0.62389950     0.13400
H1125       H  0.63256464  0.67818131  0.62279443     0.09900
H1126       H  0.64353483  0.70605878  0.62106655     0.12000
H1127       H  0.59607462  0.72553772  0.63502060     0.08600
H1128       H  0.58516787  0.69777240  0.63652989     0.11400
C1129       C  0.34128953  0.27498630  0.39366322    -0.03200
C1130       C  0.33338324  0.29006662  0.39680863    -0.05900
C1131       C  0.34244945  0.30424929  0.40042796    -0.20900
C1132       C  0.35959865  0.30376290  0.40075936     0.24800
C1133       C  0.36755212  0.28864288  0.39802701    -0.18500
C1134       C  0.35848344  0.27440891  0.39451764    -0.08500
C1135       C  0.36878516  0.31920687  0.40409204    -0.18700
C1136       C  0.38362421  0.32215424  0.39711133    -0.23500
C1137       C  0.39237388  0.33802880  0.39924249     0.26800
C1138       C  0.40310075  0.34310407  0.38595826    -0.20300
C1139       C  0.41147955  0.35801823  0.38734912    -0.09900
C1140       C  0.40950048  0.36811926  0.40222607    -0.10500
C1141       C  0.39901932  0.36286492  0.41573357    -0.03400
C1142       C  0.39050512  0.34798336  0.41426239    -0.18500
H1143       H  0.32016785  0.29097597  0.39638789     0.10500
H1144       H  0.33604231  0.31572279  0.40264634     0.10600
H1145       H  0.38075376  0.28774265  0.39874285     0.10300
H1146       H  0.36497195  0.26297577  0.39238774     0.11400
H1147       H  0.36256733  0.32889199  0.41129656     0.11500
H1148       H  0.38905506  0.31309344  0.38839114     0.13400
H1149       H  0.40486842  0.33557675  0.37434031     0.09900
H1150       H  0.41962176  0.36150604  0.37680053     0.12000
H1151       H  0.39723547  0.37031247  0.42739363     0.08600
H1152       H  0.38267095  0.34422214  0.42496974     0.11400
C1153       C  0.47166350  0.46502951  0.47960439    -0.03200
C1154       C  0.46409271  0.46056078  0.49545913    -0.05900
C1155       C  0.47020928  0.46621343  0.51154666    -0.20900
C1156       C  0.48413048  0.47632073  0.51221601     0.24800
C1157       C  0.49165141  0.48094495  0.49634069    -0.18500
C1158       C  0.48548963  0.47533664  0.48023515    -0.08500
C1159       C  0.48997434  0.48212490  0.52969017    -0.18700
C1160       C  0.50530336  0.48753939  0.53286161    -0.23500
C1161       C  0.51093222  0.49341248  0.55039801     0.26800
C1162       C  0.52449218  0.50397846  0.55125492    -0.20300
C1163       C  0.52989523  0.51020791  0.56739410    -0.09900
C1164       C  0.52190677  0.50594348  0.58310332    -0.10500
C1165       C  0.50874165  0.49483272  0.58232395    -0.03400
C1166       C  0.50333008  0.48860493  0.56617456    -0.18500
H1167       H  0.45330890  0.45281137  0.49549621     0.10500
H1168       H  0.46407568  0.46260386  0.52354328     0.10600
H1169       H  0.50210353  0.48911427  0.49617731     0.10300
H1170       H  0.49166238  0.47903000  0.46831396     0.11400
H1171       H  0.48118358  0.48171255  0.54034477     0.11500
H1172       H  0.51410146  0.48806240  0.52221872     0.13400
H1173       H  0.53074774  0.50766415  0.53936181     0.09900
H1174       H  0.54028830  0.51847334  0.56746674     0.12000
H1175       H  0.50236676  0.49114677  0.59411809     0.08600
H1176       H  0.49326301  0.47996357  0.56621687     0.11400
C1177       C  0.25513464  0.36749986  0.89757987    -0.03200
C1178       C  0.25577382  0.38431793  0.89341442    -0.05900
C1179       C  0.27074023  0.39263699  0.89311981    -0.20900
C1180       C  0.28533369  0.38442765  0.89726125     0.24800
C1181       C  0.28473671  0.36759397  0.90138070    -0.18500
C1182       C  0.26979059  0.35922801  0.90150992    -0.08500
C1183       C  0.30099979  0.39360334  0.89643159    -0.18700
C1184       C  0.31425038  0.38960227  0.90606248    -0.23500
C1185       C  0.32979400  0.39897469  0.90516009     0.26800
C1186       C  0.33984664  0.39986771  0.92010275    -0.20300
C1187       C  0.35439706  0.40892080  0.91976387    -0.09900
C1188       C  0.35931150  0.41704398  0.90434757    -0.10500
C1189       C  0.34950292  0.41566187  0.88920801    -0.03400
C1190       C  0.33489063  0.40674272  0.88960243    -0.18500
H1191       H  0.24473099  0.39103432  0.89018362     0.10500
H1192       H  0.27091487  0.40556904  0.88972867     0.10600
H1193       H  0.29580149  0.36075790  0.90413224     0.10300
H1194       H  0.26973590  0.34625476  0.90469245     0.11400
H1195       H  0.30133112  0.40451440  0.88822660     0.11500
H1196       H  0.31344751  0.37977083  0.91566252     0.13400
H1197       H  0.33628469  0.39377677  0.93216593     0.09900
H1198       H  0.36179307  0.40950179  0.93157314     0.12000
H1199       H  0.35292760  0.42170556  0.87709513     0.08600
H1200       H  0.32769104  0.40584440  0.87767164     0.11400
C1201       C  0.45561435  0.48137458  0.82993317    -0.03200
C1202       C  0.44737238  0.47812351  0.81403755    -0.05900
C1203       C  0.45439305  0.48234463  0.79791669    -0.20900
C1204       C  0.46973764  0.49006421  0.79724549     0.24800
C1205       C  0.47813200  0.49313528  0.81310027    -0.18500
C1206       C  0.47112100  0.48888748  0.82924153    -0.08500
C1207       C  0.47668367  0.49436009  0.77977577    -0.18700
C1208       C  0.48775591  0.50644298  0.77741706    -0.23500
C1209       C  0.49431614  0.51123553  0.75991930     0.26800
C1210       C  0.50095685  0.52702252  0.75791613    -0.20300
C1211       C  0.50737989  0.53206543  0.74178234    -0.09900
C1212       C  0.50744786  0.52137267  0.72722189    -0.10500
C1213       C  0.50097769  0.50546297  0.72929734    -0.03400
C1214       C  0.49452656  0.50042417  0.74544835    -0.18500
H1215       H  0.43541371  0.47240461  0.81394318     0.10500
H1216       H  0.44771443  0.47972451  0.78591129     0.10600
H1217       H  0.49023589  0.49854681  0.81313456     0.10300
H1218       H  0.47798860  0.49135860  0.84112780     0.11400
H1219       H  0.47170638  0.48797936  0.76842084     0.11500
H1220       H  0.49154593  0.51382985  0.78860348     0.13400
H1221       H  0.50106050  0.53556442  0.76886436     0.09900
H1222       H  0.51219396  0.54441401  0.74079886     0.12000
H1223       H  0.50100044  0.49676516  0.71851934     0.08600
H1224       H  0.49002212  0.48796973  0.74657248     0.11400
C1225       C  0.58858653  0.59574419  0.14856876    -0.03200
C1226       C  0.59016889  0.60574714  0.13362558    -0.05900
C1227       C  0.60375448  0.61596159  0.13162322    -0.20900
C1228       C  0.61615675  0.61630419  0.14438535     0.24800
C1229       C  0.61449289  0.60652176  0.15952037    -0.18500
C1230       C  0.60083405  0.59633129  0.16156685    -0.08500
C1231       C  0.63053611  0.62705280  0.14134247    -0.18700
C1232       C  0.64539205  0.62420834  0.14837753    -0.23500
C1233       C  0.66004784  0.63382492  0.14330518     0.26800
C1234       C  0.67533182  0.62600337  0.14322205    -0.20300
C1235       C  0.68925506  0.63429620  0.13734467    -0.09900
C1236       C  0.68820520  0.65069797  0.13167912    -0.10500
C1237       C  0.67298977  0.65874535  0.13246266    -0.03400
C1238       C  0.65904658  0.65040158  0.13821890    -0.18500
H1239       H  0.58087035  0.60583717  0.12347947     0.10500
H1240       H  0.60467230  0.62348039  0.11992798     0.10600
H1241       H  0.62358128  0.60680193  0.16988275     0.10300
H1242       H  0.59998174  0.58881663  0.17325180     0.11400
H1243       H  0.62914923  0.63677498  0.13169921     0.11500
H1244       H  0.64728611  0.61353202  0.15665221     0.13400
H1245       H  0.67642152  0.61329278  0.14724944     0.09900
H1246       H  0.70081338  0.62778608  0.13711010     0.12000
H1247       H  0.67177715  0.67142836  0.12839320     0.08600
H1248       H  0.64753171  0.65696047  0.13867001     0.11400
C1249       C  0.47098666  0.46895807  0.33444604    -0.03200
C1250       C  0.47276480  0.45941765  0.31916751    -0.05900
C1251       C  0.47666637  0.46678995  0.30315920    -0.20900
C1252       C  0.47887500  0.48386037  0.30200533     0.24800
C1253       C  0.47699326  0.49346672  0.31730379    -0.18500
C1254       C  0.47319812  0.48604886  0.33337382    -0.08500
C1255       C  0.48268419  0.49099757  0.28449925    -0.18700
C1256       C  0.48866887  0.50624846  0.28199728    -0.23500
C1257       C  0.49299801  0.51264100  0.26431856     0.26800
C1258       C  0.50506710  0.52483919  0.26296459    -0.20300
C1259       C  0.50992270  0.53070235  0.24650989    -0.09900
C1260       C  0.50267759  0.52460526  0.23101304    -0.10500
C1261       C  0.49019026  0.51277348  0.23243561    -0.03400
C1262       C  0.48535875  0.50690732  0.24888161    -0.18500
H1263       H  0.47128178  0.44620382  0.31956001     0.10500
H1264       H  0.47799130  0.45909293  0.29161566     0.10600
H1265       H  0.47810122  0.50669028  0.31697319     0.10300
H1266       H  0.47164982  0.49375770  0.34486357     0.11400
H1267       H  0.48122747  0.48291527  0.27323331     0.11500
H1268       H  0.49157797  0.51397094  0.29320709     0.13400
H1269       H  0.51097513  0.52963677  0.27466297     0.09900
H1270       H  0.51938245  0.54000338  0.24601766     0.12000
H1271       H  0.48420916  0.50785519  0.22087444     0.08600
H1272       H  0.47555449  0.49796240  0.24940152     0.11400
C1273       C  0.48909831  0.52692326  0.08628606    -0.03200
C1274       C  0.47916449  0.51281871  0.08638981    -0.05900
C1275       C  0.47200761  0.50706402  0.07085336    -0.20900
C1276       C  0.47466811  0.51517565  0.05485030     0.24800
C1277       C  0.48430148  0.52952755  0.05478454    -0.18500
C1278       C  0.49148671  0.53526809  0.07032291    -0.08500
C1279       C  0.46699119  0.50839680  0.03865428    -0.18700
C1280       C  0.47256610  0.51145352  0.02232111    -0.23500
C1281       C  0.46539824  0.50401267  0.00617145     0.26800
C1282       C  0.47492281  0.50350389  0.99085284    -0.20300
C1283       C  0.46872679  0.49663572  0.97534796    -0.09900
C1284       C  0.45276402  0.49017316  0.97477898    -0.10500
C1285       C  0.44315589  0.49079511  0.99007645    -0.03400
C1286       C  0.44934014  0.49772397  0.00556621    -0.18500
H1287       H  0.47707829  0.50604059  0.09840299     0.10500
H1288       H  0.46452168  0.49605630  0.07130281     0.10600
H1289       H  0.48616420  0.53651143  0.04288271     0.10300
H1290       H  0.49877899  0.54637064  0.06979137     0.11400
H1291       H  0.45703274  0.49973308  0.04046585     0.11500
H1292       H  0.48345407  0.51894201  0.02064794     0.13400
H1293       H  0.48730293  0.50834200  0.99090071     0.09900
H1294       H  0.47651818  0.49630414  0.96388871     0.12000
H1295       H  0.43071802  0.48621298  0.99005573     0.08600
H1296       H  0.44134543  0.49837148  0.01685605     0.11400
loop_ 
_geom_bond_atom_site_label_1 
_geom_bond_atom_site_label_2 
_geom_bond_distance 
_geom_bond_site_symmetry_2 
_ccdc_geom_bond_type 
N1            N2   1.321       .  A
N1            C5   1.344       .  A
N1           Cu9   2.074       .  S
N2            C3   1.344       .  A
N2           Cu8   2.074       .  S
C3            C4   1.388       .  A
C3            H6   1.081       .  S
C4            C5   1.388       .  A
C4         C1260   1.486       .  S
C5            H7   1.081       .  S
Cu8          N11   2.073       .  S
Cu9          N19   2.074       .  S
Cu10         N12   2.061       .  S
Cu10         N18   2.060       .  S
N11          N12   1.321       .  A
N11          C15   1.345       .  A
N12          C13   1.341       .  A
C13          C14   1.385       .  A
C13          H16   1.081       .  S
C14          C15   1.387       .  A
C14        C1225   1.480       .  S
C15          H17   1.082       .  S
N18          N19   1.320       .  A
N18          C22   1.342       .  A
N19          C20   1.344       .  A
C20          C21   1.388       .  A
C20          H23   1.082       .  S
C21          C22   1.386       .  A
C21        C1273   1.482       .  S
C22          H24   1.081       .  S
N25          N26   1.320       .  A
N25          C29   1.345       .  A
N25         Cu33   2.075       .  S
N26          C27   1.344       .  A
N26         Cu32   2.072       .  S
C27          C28   1.388       .  A
C27          H30   1.081       .  S
C28          C29   1.389       .  A
C28        C1201   1.488       .  S
C29          H31   1.081       .  S
Cu32         N35   2.072       .  S
Cu33         N43   2.075       .  S
Cu34         N36   2.072       .  S
Cu34         N42   2.073       .  S
N35          N36   1.321       .  A
N35          C39   1.344       .  A
N36          C37   1.344       .  A
C37          C38   1.386       .  A
C37          H40   1.081       .  S
C38          C39   1.386       .  A
C38        C1188   1.482       .  S
C39          H41   1.081       .  S
N42          N43   1.321       .  A
N42          C46   1.345       .  A
N43          C44   1.344       .  A
C44          C45   1.387       .  A
C44          H47   1.081       .  S
C45          C46   1.388       .  A
C45        C1284   1.484       .  S
C46          H48   1.080       .  S
N49          N50   1.320       .  A
N49          C53   1.345       .  A
N49         Cu57   2.070       .  S
N50          C51   1.342       .  A
N50         Cu56   2.063       .  S
C51          C52   1.385       .  A
C51          H54   1.082       .  S
C52          C53   1.387       .  A
C52        C1249   1.480       .  S
C53          H55   1.081       .  S
Cu56         N59   2.064       .  S
Cu57         N67   2.071       .  S
Cu58         N60   2.080       .  S
Cu58         N66   2.081       .  S
N59          N60   1.321       .  A
N59          C63   1.342       .  A
N60          C61   1.347       .  A
C61          C62   1.389       .  A
C61          H64   1.082       .  S
C62          C63   1.385       .  A
C62        C1140   1.484       .  S
C63          H65   1.082       .  S
N66          N67   1.322       .  A
N66          C70   1.345       .  A
N67          C68   1.344       .  A
C68          C69   1.386       .  A
C68          H71   1.082       .  S
C69          C70   1.388       .  A
C69        C1153   1.484       .  S
C70          H72   1.081       .  S
N73          N74   1.322       .  A
N73          C77   1.345       .  A
N73         Cu81   2.079       .  S
N74          C75   1.344       .  A
N74         Cu80   2.073       .  S
C75          C76   1.388       .  A
C75          H78   1.082       .  S
C76          C77   1.389       .  A
C76        C1212   1.488       .  S
C77          H79   1.081       .  S
Cu80         N83   2.072       .  S
Cu81         N91   2.079       .  S
Cu82         N84   2.063       .  S
Cu82         N90   2.063       .  S
N83          N84   1.320       .  A
N83          C87   1.343       .  A
N84          C85   1.343       .  A
C85          C86   1.387       .  A
C85          H88   1.081       .  S
C86          C87   1.389       .  A
C86        C1105   1.485       .  S
C87          H89   1.082       .  S
N90          N91   1.321       .  A
N90          C94   1.342       .  A
N91          C92   1.346       .  A
C92          C93   1.390       .  A
C92          H95   1.082       .  S
C93          C94   1.385       .  A
C93        C1164   1.484       .  S
C94          H96   1.080       .  S
C97          N98   1.357       .  A
C97         N102   1.358       .  A
C97        C1236   1.481       .  S
N98          C99   1.358       .  A
C99         N100   1.359       .  A
C99        C1081   1.482       .  S
N100        C101   1.360       .  A
C101        N102   1.359       .  A
C101       C1057   1.482       .  S
C103        N104   1.358       .  A
C103        N108   1.358       .  A
C103       C1020   1.483       .  S
N104        C105   1.359       .  A
C105        N106   1.360       .  A
C105       C1092   1.483       .  S
N106        C107   1.359       .  A
C107        N108   1.358       .  A
C107       C1044   1.483       .  S
N109        N110   1.320       .  A
N109        C113   1.344       .  A
N109       Cu117   2.066       .  S
N110        C111   1.344       .  A
N110       Cu116   2.067       .  S
C111        C112   1.387       .  A
C111        H114   1.080       .  S
C112        C113   1.386       .  A
C112        C972   1.481       .  S
C113        H115   1.082       .  S
Cu116       N119   2.068       .  S
Cu117       N127   2.067       .  S
Cu118       N120   2.079       .  S
Cu118       N126   2.079       .  S
N119        N120   1.322       .  A
N119        C123   1.343       .  A
N120        C121   1.346       .  A
C121        C122   1.388       .  A
C121        H124   1.082       .  S
C122        C123   1.385       .  A
C122        C937   1.483       .  S
C123        H125   1.081       .  S
N126        N127   1.321       .  A
N126        C130   1.347       .  A
N127        C128   1.341       .  A
C128        C129   1.385       .  A
C128        H131   1.082       .  S
C129        C130   1.389       .  A
C129        C985   1.484       .  S
C130        H132   1.080       .  S
N133        N134   1.321       .  A
N133        C137   1.343       .  A
N133       Cu141   2.070       .  S
N134        C135   1.345       .  A
N134       Cu140   2.072       .  S
C135        C136   1.387       .  A
C135        H138   1.081       .  S
C136        C137   1.386       .  A
C136        C913   1.482       .  S
C137        H139   1.082       .  S
Cu140       N143   2.073       .  S
Cu141       N151   2.070       .  S
Cu142       N144   2.074       .  S
Cu142       N150   2.074       .  S
N143        N144   1.322       .  A
N143        C147   1.345       .  A
N144        C145   1.344       .  A
C145        C146   1.386       .  A
C145        H148   1.082       .  S
C146        C147   1.386       .  A
C146       C1033   1.482       .  S
C147        H149   1.082       .  S
N150        N151   1.321       .  A
N150        C154   1.345       .  A
N151        C152   1.343       .  A
C152        C153   1.387       .  A
C152        H155   1.081       .  S
C153        C154   1.389       .  A
C153        C996   1.485       .  S
C154        H156   1.080       .  S
N157        N158   1.321       .  A
N157        C161   1.344       .  A
N157       Cu165   2.076       .  S
N158        C159   1.344       .  A
N158       Cu164   2.070       .  S
C159        C160   1.388       .  A
C159        H162   1.080       .  S
C160        C161   1.388       .  A
C160        C961   1.486       .  S
C161        H163   1.081       .  S
Cu164       N167   2.070       .  S
Cu165       N175   2.076       .  S
Cu166       N168   2.069       .  S
Cu166       N174   2.069       .  S
N167        N168   1.321       .  A
N167        C171   1.344       .  A
N168        C169   1.343       .  A
C169        C170   1.386       .  A
C169        H172   1.081       .  S
C170        C171   1.387       .  A
C170        C865   1.481       .  S
C171        H173   1.081       .  S
N174        N175   1.320       .  A
N174        C178   1.343       .  A
N175        C176   1.346       .  A
C176        C177   1.389       .  A
C176        H179   1.081       .  S
C177        C178   1.388       .  A
C177        C889   1.487       .  S
C178        H180   1.081       .  S
N181        N182   1.322       .  A
N181        C185   1.344       .  A
N181       Cu189   2.073       .  S
N182        C183   1.344       .  A
N182       Cu188   2.073       .  S
C183        C184   1.386       .  A
C183        H186   1.081       .  S
C184        C185   1.385       .  A
C184        C924   1.480       .  S
C185        H187   1.082       .  S
Cu188       N191   2.073       .  S
Cu189       N199   2.072       .  S
Cu190       N192   2.063       .  S
Cu190       N198   2.063       .  S
N191        N192   1.321       .  A
N191        C195   1.346       .  A
N192        C193   1.341       .  A
C193        C194   1.384       .  A
C193        H196   1.082       .  S
C194        C195   1.387       .  A
C194        C852   1.480       .  S
C195        H197   1.081       .  S
N198        N199   1.320       .  A
N198        C202   1.343       .  A
N199        C200   1.345       .  A
C200        C201   1.387       .  A
C200        H203   1.082       .  S
C201        C202   1.385       .  A
C201        C900   1.480       .  S
C202        H204   1.081       .  S
C205        N206   1.359       .  A
C205        N210   1.357       .  A
C205        C793   1.484       .  S
N206        C207   1.360       .  A
C207        N208   1.361       .  A
C207        C948   1.485       .  S
N208        C209   1.360       .  A
C209        N210   1.358       .  A
C209        C817   1.484       .  S
C211        N212   1.358       .  A
C211        N216   1.359       .  A
C211        C769   1.482       .  S
N212        C213   1.357       .  A
C213        N214   1.358       .  A
C213       C1177   1.481       .  S
N214        C215   1.359       .  A
C215        N216   1.360       .  A
C215        C828   1.482       .  S
N217        N218   1.323   1_655  A
N217        C221   1.344       .  A
N217       Cu225   2.076       .  S
N218        C219   1.346       .  A
N218       Cu224   2.076       .  S
C219        C220   1.385   1_455  A
C219        H222   1.082       .  S
C220        C221   1.384       .  A
C220        C721   1.479       .  S
C221        H223   1.081       .  S
Cu224       N227   2.076       .  S
Cu225       N235   2.076   1_655  S
Cu226       N228   2.067       .  S
Cu226       N234   2.066       .  S
N227        N228   1.321       .  A
N227        C231   1.344       .  A
N228        C229   1.343       .  A
C229        C230   1.386       .  A
C229        H232   1.082       .  S
C230        C231   1.387       .  A
C230        C708   1.482       .  S
C231        H233   1.082       .  S
N234        N235   1.320       .  A
N234        C238   1.342       .  A
N235        C236   1.346   1_455  A
C236        C237   1.390       .  A
C236        H239   1.081       .  S
C237        C238   1.387   1_655  A
C237        C756   1.487       .  S
C238        H240   1.081       .  S
N241        N242   1.320       .  A
N241        C245   1.343       .  A
N241       Cu249   2.065       .  S
N242        C243   1.344       .  A
N242       Cu248   2.068       .  S
C243        C244   1.387       .  A
C243        H246   1.080       .  S
C244        C245   1.385       .  A
C244        C673   1.480       .  S
C245        H247   1.081       .  S
Cu248       N251   2.068       .  S
Cu249       N259   2.065       .  S
Cu250       N252   2.071       .  S
Cu250       N258   2.071       .  S
N251        N252   1.322       .  A
N251        C255   1.343       .  A
N252        C253   1.344       .  A
C253        C254   1.384       .  A
C253        H256   1.082       .  S
C254        C255   1.384       .  A
C254        C649   1.476       .  S
C255        H257   1.082       .  S
N258        N259   1.320       .  A
N258        C262   1.345       .  A
N259        C260   1.343       .  A
C260        C261   1.387       .  A
C260        H263   1.081       .  S
C261        C262   1.389       .  A
C261        C745   1.484       .  S
C262        H264   1.081       .  S
N265        N266   1.322   1_545  A
N265        C269   1.347       .  A
N265       Cu273   2.079   1_545  S
N266        C267   1.343   1_565  A
N266       Cu272   2.064       .  S
C267        C268   1.382       .  A
C267        H270   1.082   1_545  S
C268        C269   1.386       .  A
C268        C732   1.475       .  S
C269        H271   1.081       .  S
Cu272       N275   2.063       .  S
Cu273       N283   2.080       .  S
Cu274       N276   2.066       .  S
Cu274       N282   2.067       .  S
N275        N276   1.321       .  A
N275        C279   1.343       .  A
N276        C277   1.343       .  A
C277        C278   1.386       .  A
C277        H280   1.083       .  S
C278        C279   1.385       .  A
C278       C1009   1.478       .  S
C279        H281   1.082       .  S
N282        N283   1.321       .  A
N282        C286   1.343       .  A
N283        C284   1.345       .  A
C284        C285   1.388       .  A
C284        H287   1.081   1_565  S
C285        C286   1.386       .  A
C285        C636   1.484       .  S
C286        H288   1.081       .  S
N289        N290   1.322   1_655  A
N289        C293   1.343       .  A
N289       Cu297   2.078       .  S
N290        C291   1.345       .  A
N290       Cu296   2.074       .  S
C291        C292   1.387   1_455  A
C291        H294   1.080       .  S
C292        C293   1.387       .  A
C292        C684   1.484       .  S
C293        H295   1.083       .  S
Cu296       N299   2.074       .  S
Cu297       N307   2.077       .  S
Cu298       N300   2.064       .  S
Cu298       N306   2.063       .  S
N299        N300   1.321       .  A
N299        C303   1.345       .  A
N300        C301   1.343       .  A
C301        C302   1.384       .  A
C301        H304   1.082       .  S
C302        C303   1.387       .  A
C302        C804   1.479       .  S
C303        H305   1.081       .  S
N306        N307   1.320   1_455  A
N306        C310   1.342   1_455  A
N307        C308   1.346       .  A
C308        C309   1.389       .  A
C308        H311   1.082       .  S
C309        C310   1.386       .  A
C309        C625   1.484       .  S
C310        H312   1.080   1_655  S
C313        N314   1.359       .  A
C313        N318   1.358       .  A
C313        C876   1.480       .  S
N314        C315   1.359       .  A
C315        N316   1.358       .  A
C315        C612   1.481       .  S
N316        C317   1.357       .  A
C317        N318   1.357       .  A
C317       C1116   1.480       .  S
C319        N320   1.358       .  A
C319        N324   1.357       .  A
C319        C588   1.480       .  S
N320        C321   1.358       .  A
C321        N322   1.358       .  A
C321        C601   1.479       .  S
N322        C323   1.357       .  A
C323        N324   1.358       .  A
C323        C660   1.479       .  S
N325        N326   1.320       .  A
N325        C329   1.344       .  A
N325       Cu333   2.070       .  S
N326        C327   1.343       .  A
N326       Cu332   2.071   1_655  S
C327        C328   1.389       .  A
C327        H330   1.080   1_655  S
C328        C329   1.389       .  A
C328        C540   1.487       .  S
C329        H331   1.081       .  S
Cu332       N335   2.071       .  S
Cu333       N343   2.070       .  S
Cu334       N336   2.076       .  S
Cu334       N342   2.076       .  S
N335        N336   1.320       .  A
N335        C339   1.344       .  A
N336        C337   1.345       .  A
C337        C338   1.390       .  A
C337        H340   1.081       .  S
C338        C339   1.388       .  A
C338        C516   1.488       .  S
C339        H341   1.082       .  S
N342        N343   1.321   1_455  A
N342        C346   1.344       .  A
N343        C344   1.344       .  A
C344        C345   1.388   1_655  A
C344        H347   1.082       .  S
C345        C346   1.389       .  A
C345        C564   1.486   1_455  S
C346        H348   1.080       .  S
N349        N350   1.320       .  A
N349        C353   1.344       .  A
N349       Cu357   2.077       .  S
N350        C351   1.343       .  A
N350       Cu356   2.064       .  S
C351        C352   1.387       .  A
C351        H354   1.081       .  S
C352        C353   1.389       .  A
C352        C553   1.486       .  S
C353        H355   1.080       .  S
Cu356       N359   2.064       .  S
Cu357       N367   2.077       .  S
Cu358       N360   2.072       .  S
Cu358       N366   2.073       .  S
N359        N360   1.321       .  A
N359        C363   1.342       .  A
N360        C361   1.344       .  A
C361        C362   1.387       .  A
C361        H364   1.082       .  S
C362        C363   1.385       .  A
C362        C577   1.480       .  S
C363        H365   1.082       .  S
N366        N367   1.321       .  A
N366        C370   1.344       .  A
N367        C368   1.346       .  A
C368        C369   1.388       .  A
C368        H371   1.082       .  S
C369        C370   1.387       .  A
C369        C492   1.485       .  S
C370        H372   1.081       .  S
N373        N374   1.319       .  A
N373        C377   1.344       .  A
N373       Cu381   2.070       .  S
N374        C375   1.342       .  A
N374       Cu380   2.061       .  S
C375        C376   1.387       .  A
C375        H378   1.080       .  S
C376        C377   1.390       .  A
C376        C529   1.485       .  S
C377        H379   1.081       .  S
Cu380       N383   2.061       .  S
Cu381       N391   2.070       .  S
Cu382       N384   2.074       .  S
Cu382       N390   2.074       .  S
N383        N384   1.321       .  A
N383        C387   1.342       .  A
N384        C385   1.345       .  A
C385        C386   1.387       .  A
C385        H388   1.082       .  S
C386        C387   1.384       .  A
C386       C1068   1.480       .  S
C387        H389   1.081       .  S
N390        N391   1.322       .  A
N390        C394   1.344       .  A
N391        C392   1.343       .  A
C392        C393   1.386       .  A
C392        H395   1.081       .  S
C393        C394   1.388       .  A
C393        C457   1.483       .  S
C394        H396   1.081       .  S
N397        N398   1.320       .  A
N397        C401   1.343       .  A
N397       Cu405   2.068       .  S
N398        C399   1.346       .  A
N398       Cu404   2.080       .  S
C399        C400   1.392       .  A
C399        H402   1.081       .  S
C400        C401   1.388       .  A
C400        C481   1.490       .  S
C401        H403   1.082       .  S
Cu404       N407   2.081       .  S
Cu405       N415   2.068       .  S
Cu406       N408   2.067       .  S
Cu406       N414   2.066       .  S
N407        N408   1.322       .  A
N407        C411   1.344       .  A
N408        C409   1.344       .  A
C409        C410   1.385       .  A
C409        H412   1.082       .  S
C410        C411   1.387       .  A
C410        C780   1.482       .  S
C411        H413   1.081       .  S
N414        N415   1.320       .  A
N414        C418   1.345       .  A
N415        C416   1.342       .  A
C416        C417   1.386       .  A
C416        H419   1.082       .  S
C417        C418   1.387       .  A
C417        C468   1.481       .  S
C418        H420   1.081       .  S
C421        N422   1.356       .  A
C421        N426   1.357       .  A
C421        C697   1.482       .  S
N422        C423   1.358       .  A
C423        N424   1.361       .  A
C423        C433   1.483       .  S
N424        C425   1.361       .  A
C425        N426   1.359       .  A
C425        C505   1.483       .  S
C427        N428   1.360       .  A
C427        N432   1.359       .  A
C427       C1129   1.484       .  S
N428        C429   1.360       .  A
C429        N430   1.359       .  A
C429        C841   1.483       .  S
N430        C431   1.358       .  A
C431        N432   1.358       .  A
C431        C444   1.483       .  S
C433        C434   1.406       .  A
C433        C438   1.406       .  A
C434        C435   1.400       .  A
C434        H447   1.083       .  S
C435        C436   1.405       .  A
C435        H448   1.083       .  S
C436        C437   1.407       .  A
C436        C439   1.488       .  S
C437        C438   1.395       .  A
C437        H449   1.080       .  S
C438        H450   1.083       .  S
C439        C440   1.349       .  D
C439        H451   1.085       .  S
C440        C441   1.487       .  S
C440        H452   1.084       .  S
C441        C442   1.404       .  A
C441        C446   1.408       .  A
C442        C443   1.396       .  A
C442        H453   1.083       .  S
C443        C444   1.405       .  A
C443        H454   1.084       .  S
C444        C445   1.407       .  A
C445        C446   1.399       .  A
C445        H455   1.083       .  S
C446        H456   1.081       .  S
C457        C458   1.406       .  A
C457        C462   1.405       .  A
C458        C459   1.397       .  A
C458        H471   1.081       .  S
C459        C460   1.402       .  A
C459        H472   1.085       .  S
C460        C461   1.407       .  A
C460        C463   1.483       .  S
C461        C462   1.396       .  A
C461        H473   1.080       .  S
C462        H474   1.083       .  S
C463        C464   1.345   1_554  D
C463        H475   1.086       .  S
C464        C465   1.482       .  S
C464        H476   1.086       .  S
C465        C466   1.401       .  A
C465        C470   1.407       .  A
C466        C467   1.394       .  A
C466        H477   1.085       .  S
C467        C468   1.405   1_655  A
C467        H478   1.081       .  S
C468        C469   1.406       .  A
C469        C470   1.398   1_455  A
C469        H479   1.083       .  S
C470        H480   1.082       .  S
C481        C482   1.408       .  A
C481        C486   1.407       .  A
C482        C483   1.398       .  A
C482        H495   1.081       .  S
C483        C484   1.403       .  A
C483        H496   1.084   1_455  S
C484        C485   1.408       .  A
C484        C487   1.489       .  S
C485        C486   1.400       .  A
C485        H497   1.081       .  S
C486        H498   1.082       .  S
C487        C488   1.348       .  D
C487        H499   1.086   1_455  S
C488        C489   1.488       .  S
C488        H500   1.086       .  S
C489        C490   1.403       .  A
C489        C494   1.408       .  A
C490        C491   1.399   1_455  A
C490        H501   1.085       .  S
C491        C492   1.406       .  A
C491        H502   1.081       .  S
C492        C493   1.406       .  A
C493        C494   1.398   1_655  A
C493        H503   1.083       .  S
C494        H504   1.080       .  S
C505        C506   1.406       .  A
C505        C510   1.407       .  A
C506        C507   1.400       .  A
C506        H519   1.082       .  S
C507        C508   1.403       .  A
C507        H520   1.083       .  S
C508        C509   1.406       .  A
C508        C511   1.485       .  S
C509        C510   1.397       .  A
C509        H521   1.082       .  S
C510        H522   1.083       .  S
C511        C512   1.348       .  D
C511        H523   1.085       .  S
C512        C513   1.486       .  S
C512        H524   1.086       .  S
C513        C514   1.402       .  A
C513        C518   1.407       .  A
C514        C515   1.398       .  A
C514        H525   1.084       .  S
C515        C516   1.407       .  A
C515        H526   1.081       .  S
C516        C517   1.407       .  A
C517        C518   1.399       .  A
C517        H527   1.082       .  S
C518        H528   1.081       .  S
C529        C530   1.407       .  A
C529        C534   1.406       .  A
C530        C531   1.397       .  A
C530        H543   1.082       .  S
C531        C532   1.402       .  A
C531        H544   1.083       .  S
C532        C533   1.407       .  A
C532        C535   1.486       .  S
C533        C534   1.397       .  A
C533        H545   1.082       .  S
C534        H546   1.080       .  S
C535        C536   1.347       .  D
C535        H547   1.084       .  S
C536        C537   1.485       .  S
C536        H548   1.084       .  S
C537        C538   1.402       .  A
C537        C542   1.407       .  A
C538        C539   1.396       .  A
C538        H549   1.083       .  S
C539        C540   1.406       .  A
C539        H550   1.080       .  S
C540        C541   1.407       .  A
C541        C542   1.399       .  A
C541        H551   1.080       .  S
C542        H552   1.081       .  S
C553        C554   1.407       .  A
C553        C558   1.407       .  A
C554        C555   1.397       .  A
C554        H567   1.081       .  S
C555        C556   1.402       .  A
C555        H568   1.083       .  S
C556        C557   1.406       .  A
C556        C559   1.483       .  S
C557        C558   1.397       .  A
C557        H569   1.082       .  S
C558        H570   1.080       .  S
C559        C560   1.347       .  D
C559        H571   1.083       .  S
C560        C561   1.487       .  S
C560        H572   1.085       .  S
C561        C562   1.403   1_655  A
C561        C566   1.408       .  A
C562        C563   1.397       .  A
C562        H573   1.083       .  S
C563        C564   1.406   1_455  A
C563        H574   1.082       .  S
C564        C565   1.407       .  A
C565        C566   1.398       .  A
C565        H575   1.081       .  S
C566        H576   1.081       .  S
C577        C578   1.405       .  A
C577        C582   1.405       .  A
C578        C579   1.397       .  A
C578        H591   1.082       .  S
C579        C580   1.402       .  A
C579        H592   1.084       .  S
C580        C581   1.406       .  A
C580        C583   1.481       .  S
C581        C582   1.396       .  A
C581        H593   1.082       .  S
C582        H594   1.082       .  S
C583        C584   1.345       .  D
C583        H595   1.086       .  S
C584        C585   1.480       .  S
C584        H596   1.086       .  S
C585        C586   1.402       .  A
C585        C590   1.406       .  A
C586        C587   1.397       .  A
C586        H597   1.083       .  S
C587        C588   1.406       .  A
C587        H598   1.083       .  S
C588        C589   1.406       .  A
C589        C590   1.396       .  A
C589        H599   1.083       .  S
C590        H600   1.082       .  S
C601        C602   1.404       .  A
C601        C606   1.406       .  A
C602        C603   1.396       .  A
C602        H615   1.084       .  S
C603        C604   1.404       .  A
C603        H616   1.083       .  S
C604        C605   1.408       .  A
C604        C607   1.485       .  S
C605        C606   1.397       .  A
C605        H617   1.081       .  S
C606        H618   1.083       .  S
C607        C608   1.347       .  D
C607        H619   1.085       .  S
C608        C609   1.484       .  S
C608        H620   1.084       .  S
C609        C610   1.403       .  A
C609        C614   1.407       .  A
C610        C611   1.398       .  A
C610        H621   1.083       .  S
C611        C612   1.406       .  A
C611        H622   1.083       .  S
C612        C613   1.406       .  A
C613        C614   1.396       .  A
C613        H623   1.083       .  S
C614        H624   1.082       .  S
C625        C626   1.405       .  A
C625        C630   1.406       .  A
C626        C627   1.395       .  A
C626        H639   1.082       .  S
C627        C628   1.403       .  A
C627        H640   1.083       .  S
C628        C629   1.409       .  A
C628        C631   1.487       .  S
C629        C630   1.400       .  A
C629        H641   1.080       .  S
C630        H642   1.082       .  S
C631        C632   1.347       .  D
C631        H643   1.085       .  S
C632        C633   1.486       .  S
C632        H644   1.084       .  S
C633        C634   1.402   1_545  A
C633        C638   1.408       .  A
C634        C635   1.398   1_556  A
C634        H645   1.083       .  S
C635        C636   1.407       .  A
C635        H646   1.082       .  S
C636        C637   1.405   1_565  A
C637        C638   1.397   1_554  A
C637        H647   1.082       .  S
C638        H648   1.081       .  S
C649        C650   1.404       .  A
C649        C654   1.404       .  A
C650        C651   1.396       .  A
C650        H663   1.082       .  S
C651        C652   1.402       .  A
C651        H664   1.083       .  S
C652        C653   1.407       .  A
C652        C655   1.481       .  S
C653        C654   1.396       .  A
C653        H665   1.081       .  S
C654        H666   1.082       .  S
C655        C656   1.345       .  D
C655        H667   1.086       .  S
C656        C657   1.481       .  S
C656        H668   1.086       .  S
C657        C658   1.402       .  A
C657        C662   1.407       .  A
C658        C659   1.397       .  A
C658        H669   1.084       .  S
C659        C660   1.406       .  A
C659        H670   1.082       .  S
C660        C661   1.405       .  A
C661        C662   1.395       .  A
C661        H671   1.083       .  S
C662        H672   1.081       .  S
C673        C674   1.406   1_565  A
C673        C678   1.404       .  A
C674        C675   1.398       .  A
C674        H687   1.081       .  S
C675        C676   1.402       .  A
C675        H688   1.084       .  S
C676        C677   1.407   1_545  A
C676        C679   1.485       .  S
C677        C678   1.396       .  A
C677        H689   1.081       .  S
C678        H690   1.082       .  S
C679        C680   1.346       .  D
C679        H691   1.085       .  S
C680        C681   1.485       .  S
C680        H692   1.086       .  S
C681        C682   1.402       .  A
C681        C686   1.408       .  A
C682        C683   1.396       .  A
C682        H693   1.084       .  S
C683        C684   1.405       .  A
C683        H694   1.081       .  S
C684        C685   1.406   1_655  A
C685        C686   1.399   1_455  A
C685        H695   1.082       .  S
C686        H696   1.081   1_655  S
C697        C698   1.407       .  A
C697        C702   1.406       .  A
C698        C699   1.397       .  A
C698        H711   1.082       .  S
C699        C700   1.402       .  A
C699        H712   1.084       .  S
C700        C701   1.407       .  A
C700        C703   1.482       .  S
C701        C702   1.397       .  A
C701        H713   1.082       .  S
C702        H714   1.083       .  S
C703        C704   1.345       .  D
C703        H715   1.087       .  S
C704        C705   1.481       .  S
C704        H716   1.086       .  S
C705        C706   1.401       .  A
C705        C710   1.406       .  A
C706        C707   1.397       .  A
C706        H717   1.084       .  S
C707        C708   1.406       .  A
C707        H718   1.082       .  S
C708        C709   1.406       .  A
C709        C710   1.397       .  A
C709        H719   1.082       .  S
C710        H720   1.082       .  S
C721        C722   1.405       .  A
C721        C726   1.405       .  A
C722        C723   1.398       .  A
C722        H735   1.083       .  S
C723        C724   1.402       .  A
C723        H736   1.083       .  S
C724        C725   1.406       .  A
C724        C727   1.480       .  S
C725        C726   1.399       .  A
C725        H737   1.083       .  S
C726        H738   1.083       .  S
C727        C728   1.345       .  D
C727        H739   1.086       .  S
C728        C729   1.481       .  S
C728        H740   1.086       .  S
C729        C730   1.403       .  A
C729        C734   1.406       .  A
C730        C731   1.398       .  A
C730        H741   1.082       .  S
C731        C732   1.403       .  A
C731        H742   1.084       .  S
C732        C733   1.404       .  A
C733        C734   1.399       .  A
C733        H743   1.081       .  S
C734        H744   1.084       .  S
C745        C746   1.406       .  A
C745        C750   1.406       .  A
C746        C747   1.398       .  A
C746        H759   1.082       .  S
C747        C748   1.402       .  A
C747        H760   1.083       .  S
C748        C749   1.407       .  A
C748        C751   1.485       .  S
C749        C750   1.397       .  A
C749        H761   1.082   1_565  S
C750        H762   1.082       .  S
C751        C752   1.347   1_565  D
C751        H763   1.084       .  S
C752        C753   1.488       .  S
C752        H764   1.085       .  S
C753        C754   1.402       .  A
C753        C758   1.409       .  A
C754        C755   1.396   1_655  A
C754        H765   1.083   1_655  S
C755        C756   1.406   1_455  A
C755        H766   1.081       .  S
C756        C757   1.406       .  A
C757        C758   1.399       .  A
C757        H767   1.082       .  S
C758        H768   1.081       .  S
C769        C770   1.407       .  A
C769        C774   1.405       .  A
C770        C771   1.400       .  A
C770        H783   1.083       .  S
C771        C772   1.403       .  A
C771        H784   1.083       .  S
C772        C773   1.406       .  A
C772        C775   1.484       .  S
C773        C774   1.395       .  A
C773        H785   1.082       .  S
C774        H786   1.083       .  S
C775        C776   1.346       .  D
C775        H787   1.085       .  S
C776        C777   1.483       .  S
C776        H788   1.085       .  S
C777        C778   1.402       .  A
C777        C782   1.407       .  A
C778        C779   1.395       .  A
C778        H789   1.083       .  S
C779        C780   1.404       .  A
C779        H790   1.081       .  S
C780        C781   1.407       .  A
C781        C782   1.400       .  A
C781        H791   1.082       .  S
C782        H792   1.082       .  S
C793        C794   1.406       .  A
C793        C798   1.407       .  A
C794        C795   1.398       .  A
C794        H807   1.083       .  S
C795        C796   1.403       .  A
C795        H808   1.084       .  S
C796        C797   1.406       .  A
C796        C799   1.485       .  S
C797        C798   1.397       .  A
C797        H809   1.082       .  S
C798        H810   1.083       .  S
C799        C800   1.347       .  D
C799        H811   1.085       .  S
C800        C801   1.484       .  S
C800        H812   1.085       .  S
C801        C802   1.403       .  A
C801        C806   1.407       .  A
C802        C803   1.397       .  A
C802        H813   1.083       .  S
C803        C804   1.405       .  A
C803        H814   1.083       .  S
C804        C805   1.405       .  A
C805        C806   1.398       .  A
C805        H815   1.082       .  S
C806        H816   1.082       .  S
C817        C818   1.406       .  A
C817        C822   1.406       .  A
C818        C819   1.395       .  A
C818        H831   1.083       .  S
C819        C820   1.402       .  A
C819        H832   1.083       .  S
C820        C821   1.409       .  A
C820        C823   1.486       .  S
C821        C822   1.400       .  A
C821        H833   1.080       .  S
C822        H834   1.083       .  S
C823        C824   1.348       .  D
C823        H835   1.084       .  S
C824        C825   1.488       .  S
C824        H836   1.084       .  S
C825        C826   1.403       .  A
C825        C830   1.408       .  A
C826        C827   1.398       .  A
C826        H837   1.083       .  S
C827        C828   1.406       .  A
C827        H838   1.084       .  S
C828        C829   1.405       .  A
C829        C830   1.397       .  A
C829        H839   1.082       .  S
C830        H840   1.082       .  S
C841        C842   1.406       .  A
C841        C846   1.406       .  A
C842        C843   1.399       .  A
C842        H855   1.083       .  S
C843        C844   1.403       .  A
C843        H856   1.084       .  S
C844        C845   1.407       .  A
C844        C847   1.486       .  S
C845        C846   1.397       .  A
C845        H857   1.081       .  S
C846        H858   1.083       .  S
C847        C848   1.346       .  D
C847        H859   1.086       .  S
C848        C849   1.483       .  S
C848        H860   1.085       .  S
C849        C850   1.401       .  A
C849        C854   1.408       .  A
C850        C851   1.395       .  A
C850        H861   1.083       .  S
C851        C852   1.404       .  A
C851        H862   1.082       .  S
C852        C853   1.405       .  A
C853        C854   1.400       .  A
C853        H863   1.082       .  S
C854        H864   1.082       .  S
C865        C866   1.406       .  A
C865        C870   1.405       .  A
C866        C867   1.398       .  A
C866        H879   1.081       .  S
C867        C868   1.402       .  A
C867        H880   1.083       .  S
C868        C869   1.406       .  A
C868        C871   1.483       .  S
C869        C870   1.396       .  A
C869        H881   1.082       .  S
C870        H882   1.081       .  S
C871        C872   1.346       .  D
C871        H883   1.085       .  S
C872        C873   1.483       .  S
C872        H884   1.085       .  S
C873        C874   1.403       .  A
C873        C878   1.407       .  A
C874        C875   1.396       .  A
C874        H885   1.083       .  S
C875        C876   1.405       .  A
C875        H886   1.083       .  S
C876        C877   1.406       .  A
C877        C878   1.397       .  A
C877        H887   1.083       .  S
C878        H888   1.081       .  S
C889        C890   1.406       .  A
C889        C894   1.407       .  A
C890        C891   1.396       .  A
C890        H903   1.082       .  S
C891        C892   1.403       .  A
C891        H904   1.083       .  S
C892        C893   1.408       .  A
C892        C895   1.488       .  S
C893        C894   1.400       .  A
C893        H905   1.081       .  S
C894        H906   1.082       .  S
C895        C896   1.348       .  D
C895        H907   1.085       .  S
C896        C897   1.487       .  S
C896        H908   1.084       .  S
C897        C898   1.403   1_565  A
C897        C902   1.408       .  A
C898        C899   1.398       .  A
C898        H909   1.083       .  S
C899        C900   1.405       .  A
C899        H910   1.082       .  S
C900        C901   1.404   1_545  A
C901        C902   1.398       .  A
C901        H911   1.083       .  S
C902        H912   1.081       .  S
C913        C914   1.404       .  A
C913        C918   1.405       .  A
C914        C915   1.396       .  A
C914        H927   1.082       .  S
C915        C916   1.403       .  A
C915        H928   1.084       .  S
C916        C917   1.409       .  A
C916        C919   1.488       .  S
C917        C918   1.399       .  A
C917        H929   1.080       .  S
C918        H930   1.082       .  S
C919        C920   1.347       .  D
C919        H931   1.085       .  S
C920        C921   1.486       .  S
C920        H932   1.084       .  S
C921        C922   1.403       .  A
C921        C926   1.409   1_565  A
C922        C923   1.398       .  A
C922        H933   1.084       .  S
C923        C924   1.405   1_565  A
C923        H934   1.081       .  S
C924        C925   1.404       .  A
C925        C926   1.397       .  A
C925        H935   1.083       .  S
C926        H936   1.080       .  S
C937        C938   1.405       .  A
C937        C942   1.405       .  A
C938        C939   1.399       .  A
C938        H951   1.082       .  S
C939        C940   1.404       .  A
C939        H952   1.084       .  S
C940        C941   1.407       .  A
C940        C943   1.487       .  S
C941        C942   1.397       .  A
C941        H953   1.081       .  S
C942        H954   1.082       .  S
C943        C944   1.347       .  D
C943        H955   1.087       .  S
C944        C945   1.486       .  S
C944        H956   1.087       .  S
C945        C946   1.402       .  A
C945        C950   1.408       .  A
C946        C947   1.397       .  A
C946        H957   1.085       .  S
C947        C948   1.407       .  A
C947        H958   1.082       .  S
C948        C949   1.407       .  A
C949        C950   1.399       .  A
C949        H959   1.083       .  S
C950        H960   1.081       .  S
C961        C962   1.406       .  A
C961        C966   1.407       .  A
C962        C963   1.397       .  A
C962        H975   1.081       .  S
C963        C964   1.402       .  A
C963        H976   1.083       .  S
C964        C965   1.407       .  A
C964        C967   1.486       .  S
C965        C966   1.397       .  A
C965        H977   1.081       .  S
C966        H978   1.081       .  S
C967        C968   1.347       .  D
C967        H979   1.085       .  S
C968        C969   1.486   1_565  S
C968        H980   1.085   1_565  S
C969        C970   1.403       .  A
C969        C974   1.408       .  A
C970        C971   1.396       .  A
C970        H981   1.082       .  S
C971        C972   1.405       .  A
C971        H982   1.082       .  S
C972        C973   1.405       .  A
C973        C974   1.398       .  A
C973        H983   1.081       .  S
C974        H984   1.081       .  S
C985        C986   1.406       .  A
C985        C990   1.406       .  A
C986        C987   1.395       .  A
C986        H999   1.081       .  S
C987        C988   1.402       .  A
C987       H1000   1.084   1_545  S
C988        C989   1.409       .  A
C988        C991   1.487       .  S
C989        C990   1.400       .  A
C989       H1001   1.081       .  S
C990       H1002   1.082       .  S
C991        C992   1.346   1_556  D
C991       H1003   1.085   1_545  S
C992        C993   1.488   1_545  S
C992       H1004   1.085       .  S
C993        C994   1.402       .  A
C993        C998   1.409       .  A
C994        C995   1.397       .  A
C994       H1005   1.085       .  S
C995        C996   1.406       .  A
C995       H1006   1.080       .  S
C996        C997   1.405       .  A
C997        C998   1.398       .  A
C997       H1007   1.083       .  S
C998       H1008   1.080       .  S
C1009      C1010   1.405       .  A
C1009      C1014   1.404       .  A
C1010      C1011   1.397       .  A
C1010      H1023   1.082       .  S
C1011      C1012   1.402       .  A
C1011      H1024   1.084       .  S
C1012      C1013   1.407       .  A
C1012      C1015   1.482       .  S
C1013      C1014   1.396       .  A
C1013      H1025   1.082       .  S
C1014      H1026   1.082       .  S
C1015      C1016   1.345       .  D
C1015      H1027   1.086       .  S
C1016      C1017   1.483       .  S
C1016      H1028   1.086       .  S
C1017      C1018   1.402       .  A
C1017      C1022   1.407       .  A
C1018      C1019   1.397       .  A
C1018      H1029   1.084       .  S
C1019      C1020   1.406       .  A
C1019      H1030   1.083       .  S
C1020      C1021   1.406       .  A
C1021      C1022   1.397       .  A
C1021      H1031   1.082       .  S
C1022      H1032   1.082       .  S
C1033      C1034   1.406       .  A
C1033      C1038   1.405       .  A
C1034      C1035   1.399       .  A
C1034      H1047   1.083       .  S
C1035      C1036   1.403       .  A
C1035      H1048   1.082       .  S
C1036      C1037   1.406       .  A
C1036      C1039   1.485       .  S
C1037      C1038   1.397       .  A
C1037      H1049   1.083       .  S
C1038      H1050   1.081       .  S
C1039      C1040   1.347       .  D
C1039      H1051   1.085       .  S
C1040      C1041   1.484       .  S
C1040      H1052   1.085       .  S
C1041      C1042   1.402       .  A
C1041      C1046   1.407       .  A
C1042      C1043   1.397       .  A
C1042      H1053   1.083       .  S
C1043      C1044   1.406       .  A
C1043      H1054   1.083       .  S
C1044      C1045   1.407       .  A
C1045      C1046   1.399       .  A
C1045      H1055   1.083       .  S
C1046      H1056   1.082       .  S
C1057      C1058   1.406       .  A
C1057      C1062   1.406       .  A
C1058      C1059   1.398       .  A
C1058      H1071   1.083       .  S
C1059      C1060   1.402       .  A
C1059      H1072   1.083       .  S
C1060      C1061   1.406       .  A
C1060      C1063   1.483       .  S
C1061      C1062   1.396       .  A
C1061      H1073   1.082       .  S
C1062      H1074   1.083       .  S
C1063      C1064   1.347       .  D
C1063      H1075   1.085       .  S
C1064      C1065   1.483       .  S
C1064      H1076   1.085       .  S
C1065      C1066   1.402       .  A
C1065      C1070   1.407       .  A
C1066      C1067   1.396       .  A
C1066      H1077   1.083       .  S
C1067      C1068   1.405       .  A
C1067      H1078   1.082       .  S
C1068      C1069   1.405       .  A
C1069      C1070   1.398       .  A
C1069      H1079   1.081       .  S
C1070      H1080   1.082       .  S
C1081      C1082   1.405       .  A
C1081      C1086   1.406       .  A
C1082      C1083   1.395       .  A
C1082      H1095   1.083       .  S
C1083      C1084   1.404       .  A
C1083      H1096   1.083       .  S
C1084      C1085   1.410       .  A
C1084      C1087   1.489       .  S
C1085      C1086   1.399       .  A
C1085      H1097   1.080       .  S
C1086      H1098   1.083       .  S
C1087      C1088   1.348       .  D
C1087      H1099   1.084       .  S
C1088      C1089   1.487       .  S
C1088      H1100   1.083       .  S
C1089      C1090   1.403       .  A
C1089      C1094   1.408       .  A
C1090      C1091   1.398       .  A
C1090      H1101   1.083       .  S
C1091      C1092   1.406       .  A
C1091      H1102   1.083       .  S
C1092      C1093   1.406       .  A
C1093      C1094   1.397       .  A
C1093      H1103   1.083       .  S
C1094      H1104   1.081       .  S
C1105      C1106   1.406       .  A
C1105      C1110   1.407       .  A
C1106      C1107   1.396       .  A
C1106      H1119   1.081       .  S
C1107      C1108   1.401       .  A
C1107      H1120   1.084       .  S
C1108      C1109   1.406       .  A
C1108      C1111   1.483       .  S
C1109      C1110   1.397       .  A
C1109      H1121   1.082       .  S
C1110      H1122   1.082       .  S
C1111      C1112   1.346       .  D
C1111      H1123   1.086       .  S
C1112      C1113   1.482       .  S
C1112      H1124   1.085       .  S
C1113      C1114   1.402       .  A
C1113      C1118   1.407       .  A
C1114      C1115   1.397       .  A
C1114      H1125   1.083       .  S
C1115      C1116   1.406       .  A
C1115      H1126   1.082       .  S
C1116      C1117   1.406       .  A
C1117      C1118   1.396       .  A
C1117      H1127   1.083       .  S
C1118      H1128   1.081       .  S
C1129      C1130   1.407       .  A
C1129      C1134   1.406       .  A
C1130      C1131   1.397       .  A
C1130      H1143   1.082       .  S
C1131      C1132   1.401       .  A
C1131      H1144   1.084       .  S
C1132      C1133   1.407       .  A
C1132      C1135   1.484       .  S
C1133      C1134   1.399       .  A
C1133      H1145   1.082       .  S
C1134      H1146   1.083       .  S
C1135      C1136   1.346       .  D
C1135      H1147   1.086       .  S
C1136      C1137   1.484       .  S
C1136      H1148   1.086       .  S
C1137      C1138   1.401       .  A
C1137      C1142   1.407       .  A
C1138      C1139   1.396       .  A
C1138      H1149   1.084       .  S
C1139      C1140   1.406       .  A
C1139      H1150   1.081       .  S
C1140      C1141   1.406       .  A
C1141      C1142   1.400       .  A
C1141      H1151   1.083       .  S
C1142      H1152   1.081       .  S
C1153      C1154   1.404       .  A
C1153      C1158   1.407       .  A
C1154      C1155   1.397       .  A
C1154      H1167   1.083       .  S
C1155      C1156   1.403       .  A
C1155      H1168   1.083       .  S
C1156      C1157   1.407       .  A
C1156      C1159   1.487       .  S
C1157      C1158   1.398       .  A
C1157      H1169   1.082       .  S
C1158      H1170   1.081       .  S
C1159      C1160   1.348       .  D
C1159      H1171   1.084       .  S
C1160      C1161   1.487       .  S
C1160      H1172   1.084       .  S
C1161      C1162   1.403       .  A
C1161      C1166   1.408       .  A
C1162      C1163   1.397       .  A
C1162      H1173   1.082       .  S
C1163      C1164   1.406       .  A
C1163      H1174   1.082       .  S
C1164      C1165   1.405       .  A
C1165      C1166   1.398       .  A
C1165      H1175   1.081       .  S
C1166      H1176   1.081       .  S
C1177      C1178   1.406       .  A
C1177      C1182   1.406       .  A
C1178      C1179   1.397       .  A
C1178      H1191   1.083       .  S
C1179      C1180   1.402       .  A
C1179      H1192   1.084       .  S
C1180      C1181   1.406       .  A
C1180      C1183   1.482       .  S
C1181      C1182   1.397       .  A
C1181      H1193   1.082       .  S
C1182      H1194   1.083       .  S
C1183      C1184   1.346       .  D
C1183      H1195   1.086       .  S
C1184      C1185   1.482       .  S
C1184      H1196   1.086       .  S
C1185      C1186   1.402       .  A
C1185      C1190   1.406       .  A
C1186      C1187   1.398       .  A
C1186      H1197   1.084       .  S
C1187      C1188   1.406       .  A
C1187      H1198   1.082       .  S
C1188      C1189   1.405       .  A
C1189      C1190   1.397       .  A
C1189      H1199   1.082       .  S
C1190      H1200   1.082       .  S
C1201      C1202   1.407       .  A
C1201      C1206   1.407       .  A
C1202      C1203   1.398       .  A
C1202      H1215   1.082       .  S
C1203      C1204   1.402       .  A
C1203      H1216   1.083       .  S
C1204      C1205   1.407       .  A
C1204      C1207   1.488       .  S
C1205      C1206   1.399       .  A
C1205      H1217   1.082       .  S
C1206      H1218   1.081       .  S
C1207      C1208   1.348       .  D
C1207      H1219   1.085       .  S
C1208      C1209   1.488       .  S
C1208      H1220   1.085       .  S
C1209      C1210   1.403       .  A
C1209      C1214   1.407       .  A
C1210      C1211   1.397       .  A
C1210      H1221   1.083       .  S
C1211      C1212   1.407       .  A
C1211      H1222   1.081       .  S
C1212      C1213   1.407       .  A
C1213      C1214   1.399       .  A
C1213      H1223   1.082       .  S
C1214      H1224   1.081       .  S
C1225      C1226   1.405       .  A
C1225      C1230   1.405       .  A
C1226      C1227   1.395       .  A
C1226      H1239   1.081       .  S
C1227      C1228   1.401       .  A
C1227      H1240   1.083       .  S
C1228      C1229   1.407       .  A
C1228      C1231   1.483       .  S
C1229      C1230   1.399       .  A
C1229      H1241   1.081       .  S
C1230      H1242   1.082       .  S
C1231      C1232   1.345       .  D
C1231      H1243   1.085       .  S
C1232      C1233   1.482       .  S
C1232      H1244   1.085       .  S
C1233      C1234   1.402       .  A
C1233      C1238   1.406       .  A
C1234      C1235   1.397       .  A
C1234      H1245   1.083       .  S
C1235      C1236   1.406       .  A
C1235      H1246   1.083       .  S
C1236      C1237   1.406       .  A
C1237      C1238   1.397       .  A
C1237      H1247   1.082       .  S
C1238      H1248   1.082       .  S
C1249      C1250   1.404       .  A
C1249      C1254   1.405       .  A
C1250      C1251   1.395       .  A
C1250      H1263   1.082       .  S
C1251      C1252   1.403       .  A
C1251      H1264   1.083       .  S
C1252      C1253   1.409       .  A
C1252      C1255   1.487       .  S
C1253      C1254   1.399       .  A
C1253      H1265   1.080       .  S
C1254      H1266   1.082       .  S
C1255      C1256   1.347       .  D
C1255      H1267   1.085       .  S
C1256      C1257   1.486       .  S
C1256      H1268   1.084       .  S
C1257      C1258   1.402       .  A
C1257      C1262   1.407       .  A
C1258      C1259   1.398       .  A
C1258      H1269   1.083       .  S
C1259      C1260   1.407       .  A
C1259      H1270   1.082       .  S
C1260      C1261   1.406       .  A
C1261      C1262   1.397       .  A
C1261      H1271   1.081       .  S
C1262      H1272   1.082       .  S
C1273      C1274   1.405       .  A
C1273      C1278   1.406       .  A
C1274      C1275   1.397       .  A
C1274      H1287   1.082       .  S
C1275      C1276   1.403       .  A
C1275      H1288   1.085       .  S
C1276      C1277   1.408       .  A
C1276      C1279   1.486       .  S
C1277      C1278   1.397       .  A
C1277      H1289   1.081       .  S
C1278      H1290   1.082       .  S
C1279      C1280   1.347       .  D
C1279      H1291   1.085       .  S
C1280      C1281   1.487       .  S
C1280      H1292   1.085       .  S
C1281      C1282   1.403   1_554  A
C1281      C1286   1.408       .  A
C1282      C1283   1.397       .  A
C1282      H1293   1.085       .  S
C1283      C1284   1.406       .  A
C1283      H1294   1.080       .  S
C1284      C1285   1.405       .  A
C1285      C1286   1.398   1_556  A
C1285      H1295   1.082       .  S
C1286      H1296   1.081       .  S
