geometry optimzed in LAMMPS
_audit_creation_date              2020-11-30 
_audit_creation_method            'lammps2cif' 
_symmetry_space_group_name_H-M    'P1' 
_symmetry_Int_Tables_number       1 
_symmetry_cell_setting            triclinic 
loop_ 
_symmetry_equiv_pos_as_xyz 
  x,y,z 
_cell_length_a                    32.73168118 
_cell_length_b                    28.774464394359082 
_cell_length_c                    27.06222668838156 
_cell_angle_alpha                 90.79587725822121 
_cell_angle_beta                  92.44013167665531 
_cell_angle_gamma                 72.52628081677048 
loop_ 
_atom_site_label 
_atom_site_type_symbol 
_atom_site_fract_x 
_atom_site_fract_y 
_atom_site_fract_z 
_atom_site_charge 
N1          N  0.14254622  0.33341243  0.24380123    -0.02700
C2          C  0.18341536  0.30474713  0.23953477    -0.00100
C3          C  0.18482181  0.25627613  0.24045197    -0.23000
C4          C  0.14342315  0.25561175  0.24721660    -0.23200
C5          C  0.11805841  0.30369705  0.24950976    -0.00200
H6          H  0.21318853  0.22496602  0.24072824     0.13500
H7          H  0.13342763  0.22361235  0.25329453     0.13600
N8          N  0.22265010  0.54366225  0.25382158    -0.02700
C9          C  0.26325491  0.53755995  0.23977848    -0.00100
C10         C  0.27797557  0.49492892  0.21312509    -0.23000
C11         C  0.24537791  0.47402654  0.21041742    -0.23200
C12         C  0.21219984  0.50421115  0.23622238    -0.00200
H13         H  0.30884430  0.48069456  0.19686371     0.13500
H14         H  0.24574944  0.44051820  0.19150079     0.13600
N15         N  0.04743436  0.62771206  0.24082529    -0.02700
C16         C  0.00799026  0.65748369  0.22762277    -0.00100
C17         C  0.00910543  0.70508175  0.22559074    -0.23000
C18         C  0.05053151  0.70421417  0.23905548    -0.23200
C19         C  0.07339909  0.65604715  0.24826570    -0.00200
H20         H  0.48219120  0.73725552  0.21846855     0.13500
H21         H  0.06224652  0.73547143  0.24366564     0.13600
O22         O  0.12266136  0.40911601  0.28307568    -0.72200
O23         O  0.06934843  0.55312479  0.28184689    -0.73200
O24         O  0.03858497  0.46947056  0.28047186    -0.61800
O25         O  0.15428248  0.49313839  0.28086202    -0.70200
O26         O  0.15156566  0.48903501  0.19877162    -0.69800
O27         O  0.03665638  0.47114630  0.19821977    -0.61000
O28         O  0.06773755  0.55286115  0.19963598    -0.73500
O29         O  0.11960428  0.40732741  0.20087908    -0.72300
Cu30       Cu  0.09636747  0.48121314  0.28458311     1.04600
Cu31       Cu  0.09385477  0.48007241  0.19655675     1.04300
C32         C  0.12781918  0.38538020  0.24254568     0.94000
C33         C  0.06122358  0.57578261  0.24078789     0.93100
C34         C  0.02010641  0.46592396  0.23859480     0.85300
C35         C  0.17051828  0.49558682  0.23910733     0.91600
N36         N  0.46912547  0.41742072  0.24862936    -0.02700
C37         C  0.42639119  0.42721312  0.23962145    -0.00100
C38         C  0.40897380  0.47346852  0.22029286    -0.23000
C39         C  0.44215982  0.49293614  0.21705275    -0.23200
C40         C  0.97821345  0.45836099  0.23575024    -0.00200
H41         H  0.37592537  0.49095663  0.20901762     0.13500
H42         H  0.44029909  0.52835152  0.20252066     0.13600
C43         C  0.01999806  0.29785594  0.31487074     0.87200
C44         C  0.06615076  0.29886987  0.31054477    -0.53000
C45         C  0.07376245  0.31867437  0.26763089     0.10200
C46         C  0.03318258  0.33804580  0.23357538     0.21100
C47         C  0.99193155  0.35071496  0.30857616    -0.53700
C48         C  0.99848123  0.37188658  0.26601775     0.10300
C49         C  0.01070540  0.27211924  0.26741917    -0.53300
C50         C  0.01791902  0.29281644  0.22478217     0.10800
H51         H  0.09179330  0.28011340  0.33661751     0.15300
H52         H  0.03882798  0.35535754  0.19916470     0.01100
H53         H  0.46721130  0.36893253  0.33382679     0.15600
H54         H  0.00017621  0.23976918  0.26758105     0.15400
C55         C  0.17217907  0.66066893  0.32296838     0.87200
C56         C  0.12603835  0.65885969  0.31484345    -0.53000
C57         C  0.11780385  0.63999442  0.27026867     0.10200
C58         C  0.15775028  0.62232155  0.23865940     0.21100
C59         C  0.20096007  0.60826679  0.31615801    -0.53700
C60         C  0.19359864  0.58818695  0.27197655     0.10300
C61         C  0.17986363  0.68805086  0.27740777    -0.53300
C62         C  0.17208970  0.66809612  0.23327845     0.10800
H63         H  0.10071573  0.67697324  0.33948880     0.15300
H64         H  0.15162152  0.60567359  0.20293563     0.01100
H65         H  0.22650892  0.58974990  0.34236713     0.15600
H66         H  0.18998546  0.72066233  0.27964236     0.15400
N67         N  0.02559198  0.21454479  0.41789085    -0.26500
N68         N  0.01524409  0.25663044  0.44178001    -0.34400
C69         C  0.00860924  0.29298792  0.40872287     0.01800
C70         C  0.01417243  0.27301965  0.36163918     0.07800
C71         C  0.02579770  0.22313565  0.36927043    -0.05300
H72         H  0.00242978  0.33100020  0.41844441     0.08500
H73         H  0.03604936  0.19490241  0.34170103     0.09700
Cu74       Cu  0.01429555  0.26281480  0.01846756     0.44200
Cu75       Cu  0.04308758  0.14628299  0.45114126     0.42000
Cu76       Cu  0.03565357  0.14715769  0.08196590     0.43900
N77         N  0.01562902  0.25622931  0.09503458    -0.33900
N78         N  0.02179524  0.21403188  0.11753408    -0.28200
C79         C  0.02173269  0.22119056  0.16665030    -0.04300
C80         C  0.01571955  0.27014510  0.17578722     0.07900
C81         C  0.01206837  0.29134827  0.12952383     0.01700
H82         H  0.02796058  0.19232807  0.19371486     0.09400
H83         H  0.00791556  0.32924631  0.12147586     0.08500
N84         N  0.05616128  0.08335313  0.04136750    -0.35400
N85         N  0.05941819  0.08274461  0.49286029    -0.27600
C86         C  0.07542000  0.03622486  0.47773744    -0.02800
C87         C  0.08261555  0.00623410  0.01886665     0.05800
C88         C  0.06997522  0.03739507  0.05850418     0.03900
H89         H  0.08194331  0.02517954  0.43978387     0.09000
H90         H  0.07144205  0.02754300  0.09711322     0.07800
N91         N  0.17004241  0.74250108  0.42841795    -0.26500
N92         N  0.17685004  0.70083314  0.45210809    -0.34400
C93         C  0.18175027  0.66467116  0.41857672     0.01800
C94         C  0.17874735  0.68440124  0.37154716     0.07800
C95         C  0.17060415  0.73396143  0.37957298    -0.05300
H96         H  0.18490208  0.62720862  0.42758286     0.08500
H97         H  0.16246455  0.76240353  0.35194118     0.09700
Cu98       Cu  0.17497212  0.69649824  0.02862365     0.44200
Cu99       Cu  0.15325188  0.81078889  0.46123848     0.42000
Cu100      Cu  0.14553307  0.81473052  0.09176728     0.43900
N101        N  0.17215193  0.70508763  0.10496915    -0.33900
N102        N  0.16299158  0.74785078  0.12758151    -0.28200
C103        C  0.16357632  0.74085550  0.17662584    -0.04300
C104        C  0.17302188  0.69145551  0.18535130     0.07900
C105        C  0.17815142  0.66983566  0.13914282     0.01700
H106        H  0.15546527  0.76985723  0.20370595     0.09400
H107        H  0.18504536  0.63143060  0.13083870     0.08500
N108        N  0.12663934  0.87694597  0.04815425    -0.35400
N109        N  0.12991831  0.87555646  0.49964664    -0.27600
C110        C  0.11476977  0.92116435  0.48158690    -0.02800
C111        C  0.10126330  0.95278347  0.02073542     0.05800
C112        C  0.10925662  0.92346192  0.06236930     0.03900
H113        H  0.11346412  0.93049897  0.44284466     0.09000
H114        H  0.10285177  0.93500546  0.10021401     0.06900
C115        C  0.35465582  0.58939453  0.27183391     0.16700
C116        C  0.39559123  0.59117663  0.28740524    -0.32300
C117        C  0.41636421  0.61519710  0.25686442     0.21100
C118        C  0.39651992  0.63839966  0.21381001     0.03300
C119        C  0.35532457  0.63705466  0.19845817    -0.22100
C120        C  0.33523495  0.61126418  0.22801560     0.12500
S121        S  0.32740616  0.55552338  0.29971992    -0.05700
C122        C  0.28995815  0.56967609  0.25134877    -0.09200
C123        C  0.29795514  0.60014845  0.21614868    -0.25800
S124        S  0.42720801  0.66581036  0.18220456    -0.03000
C125        C  0.46784419  0.64386514  0.22629765    -0.16500
C126        C  0.45743426  0.61771738  0.26389975    -0.14500
H127        H  0.41149851  0.57241650  0.32056277     0.20900
H128        H  0.34033912  0.65367896  0.16398076     0.17000
H129        H  0.27967806  0.60981682  0.18151826     0.19500
H130        H  0.47842995  0.60244279  0.29542540     0.12800
C131        C  0.27439204  0.35959260  0.27083132     0.16700
C132        C  0.29910567  0.38862784  0.28851159    -0.32300
C133        C  0.33957318  0.38035763  0.26933547     0.21100
C134        C  0.35569204  0.34360929  0.23529835     0.03300
C135        C  0.33134433  0.31328525  0.21873551    -0.22100
C136        C  0.28999472  0.32273062  0.23677638     0.12500
S137        S  0.22295035  0.36790777  0.28601906    -0.05700
C138        C  0.22156681  0.32180850  0.24546644    -0.09200
C139        C  0.25983730  0.30022472  0.22258097    -0.25800
S140        S  0.40353625  0.34386152  0.21233738    -0.03000
C141        C  0.40074155  0.39448774  0.24830296    -0.16500
C142        C  0.36536865  0.40932312  0.27709451    -0.14500
H143        H  0.28629836  0.41835855  0.31393873     0.20900
H144        H  0.34316072  0.28537131  0.19116992     0.17000
H145        H  0.26492179  0.27051178  0.19629124     0.19500
H146        H  0.35728796  0.44200585  0.29958049     0.12800
N147        N  0.14254633  0.33341225  0.74380187    -0.02700
C148        C  0.18341548  0.30474693  0.73953566    -0.00100
C149        C  0.18482198  0.25627593  0.74045324    -0.23000
C150        C  0.14342332  0.25561152  0.74721787    -0.23200
C151        C  0.11805856  0.30369686  0.74951063    -0.00200
H152        H  0.21318872  0.22496587  0.74072966     0.13500
H153        H  0.13342784  0.22361221  0.75329594     0.13600
N154        N  0.22264999  0.54366221  0.75382161    -0.02700
C155        C  0.26325489  0.53755989  0.73977881    -0.00100
C156        C  0.27797570  0.49492881  0.71312557    -0.23000
C157        C  0.24537811  0.47402631  0.71041770    -0.23200
C158        C  0.21219990  0.50421099  0.73622247    -0.00200
H159        H  0.30884455  0.48069442  0.69686448     0.13500
H160        H  0.24574983  0.44051794  0.69150119     0.13600
N161        N  0.04743435  0.62771192  0.74082463    -0.02700
C162        C  0.00799025  0.65748352  0.72762213    -0.00100
C163        C  0.00910526  0.70508167  0.72559051    -0.23000
C164        C  0.05053131  0.70421410  0.73905543    -0.23200
C165        C  0.07339894  0.65604707  0.74826552    -0.00200
H166        H  0.48219121  0.73725548  0.71846831     0.13500
H167        H  0.06224621  0.73547141  0.74366587     0.13600
O168        O  0.12266146  0.40911603  0.78307596    -0.72200
O169        O  0.06934833  0.55312475  0.78184643    -0.73200
O170        O  0.03858494  0.46947064  0.78047177    -0.61800
O171        O  0.15428250  0.49313842  0.78086202    -0.70200
O172        O  0.15156586  0.48903468  0.69877159    -0.69800
O173        O  0.03665646  0.47114601  0.69821964    -0.61000
O174        O  0.06773774  0.55286085  0.69963549    -0.73500
O175        O  0.11960447  0.40732707  0.70087934    -0.72300
Cu176      Cu  0.09636747  0.48121319  0.78458314     1.04600
Cu177      Cu  0.09385495  0.48007209  0.69655661     1.04300
C178        C  0.12781932  0.38538005  0.74254607     0.94000
C179        C  0.06122362  0.57578244  0.74078734     0.93100
C180        C  0.02010643  0.46592386  0.73859471     0.85300
C181        C  0.17051840  0.49558660  0.73910733     0.91600
N182        N  0.46912555  0.41742072  0.74862924    -0.02700
C183        C  0.42639128  0.42721307  0.73962108    -0.00100
C184        C  0.40897390  0.47346844  0.72029238    -0.23000
C185        C  0.44215990  0.49293616  0.71705261    -0.23200
C186        C  0.97821348  0.45836088  0.73575022    -0.00200
H187        H  0.37592557  0.49095645  0.70901683     0.13500
H188        H  0.44029918  0.52835151  0.70252045     0.13600
C189        C  0.01999785  0.29785590  0.81487089     0.87200
C190        C  0.06615062  0.29886970  0.81054528    -0.53000
C191        C  0.07376250  0.31867421  0.76763148     0.10200
C192        C  0.03318279  0.33804568  0.73357566     0.21100
C193        C  0.99193135  0.35071493  0.80857622    -0.53700
C194        C  0.99848120  0.37188644  0.76601778     0.10300
C195        C  0.01070544  0.27211920  0.76741920    -0.53300
C196        C  0.01791927  0.29281634  0.72478226     0.10800
H197        H  0.09179301  0.28011316  0.83661807     0.15300
H198        H  0.03882837  0.35535734  0.69916505     0.01100
H199        H  0.46721131  0.36893243  0.83382661     0.15600
H200        H  0.00017606  0.23976920  0.76758098     0.15400
C201        C  0.17217880  0.66066896  0.82296827     0.87200
C202        C  0.12603813  0.65885956  0.81484338    -0.53000
C203        C  0.11780364  0.63999430  0.77026860     0.10200
C204        C  0.15775004  0.62232153  0.73865928     0.21100
C205        C  0.20095985  0.60826687  0.81615784    -0.53700
C206        C  0.19359846  0.58818697  0.77197644     0.10300
C207        C  0.17986317  0.68805092  0.77740766    -0.53300
C208        C  0.17208928  0.66809626  0.73327836     0.10800
H209        H  0.10071547  0.67697314  0.83948882     0.15300
H210        H  0.15162126  0.60567358  0.70293553     0.01100
H211        H  0.22650873  0.58974994  0.84236703     0.15600
H212        H  0.18998500  0.72066258  0.77964228     0.15400
N213        N  0.02559143  0.21454460  0.91789073    -0.26500
N214        N  0.01524365  0.25663018  0.94177997    -0.34400
C215        C  0.00860878  0.29298783  0.90872299     0.01800
C216        C  0.01417190  0.27301964  0.86163923     0.07800
C217        C  0.02579700  0.22313562  0.86927030    -0.05300
H218        H  0.00242945  0.33099993  0.91844467     0.08500
H219        H  0.03604857  0.19490248  0.84170078     0.09700
Cu220      Cu  0.01429585  0.26281521  0.51846765     0.44200
Cu221      Cu  0.04308684  0.14628279  0.95114136     0.42000
Cu222      Cu  0.03565366  0.14715778  0.58196573     0.43900
N223        N  0.01562922  0.25622945  0.59503456    -0.33900
N224        N  0.02179547  0.21403203  0.61753398    -0.28200
C225        C  0.02173283  0.22119066  0.66665025    -0.04300
C226        C  0.01571971  0.27014520  0.67578719     0.07900
C227        C  0.01206860  0.29134848  0.62952380     0.01700
H228        H  0.02796062  0.19232828  0.69371470     0.09400
H229        H  0.00791599  0.32924625  0.62147579     0.08500
N230        N  0.05616175  0.08335323  0.54136738    -0.35400
N231        N  0.05941749  0.08274452  0.99286038    -0.27600
C232        C  0.07541918  0.03622477  0.97773742    -0.02800
C233        C  0.08261628  0.00623421  0.51886667     0.05800
C234        C  0.06997580  0.03739521  0.55850414     0.03900
H235        H  0.08194233  0.02517952  0.93978386     0.09000
H236        H  0.07144253  0.02754321  0.59711319     0.07800
N237        N  0.17004219  0.74250101  0.92841788    -0.26500
N238        N  0.17684991  0.70083303  0.95210798    -0.34400
C239        C  0.18175011  0.66467106  0.91857655     0.01800
C240        C  0.17874712  0.68440124  0.87154702     0.07800
C241        C  0.17060389  0.73396144  0.87957286    -0.05300
H242        H  0.18490196  0.62720856  0.92758253     0.08500
H243        H  0.16246420  0.76240352  0.85194113     0.09700
Cu244      Cu  0.17497192  0.69649831  0.52862359     0.44200
Cu245      Cu  0.15325139  0.81078885  0.96123860     0.42000
Cu246      Cu  0.14553344  0.81473055  0.59176712     0.43900
N247        N  0.17215191  0.70508764  0.60496910    -0.33900
N248        N  0.16299148  0.74785081  0.62758142    -0.28200
C249        C  0.16357610  0.74085561  0.67662577    -0.04300
C250        C  0.17302158  0.69145562  0.68535125     0.07900
C251        C  0.17815123  0.66983574  0.63914282     0.01700
H252        H  0.15546511  0.76985736  0.70370584     0.09400
H253        H  0.18504501  0.63143064  0.63083878     0.08500
N254        N  0.12663987  0.87694603  0.54815423    -0.35400
N255        N  0.12991766  0.87555638  0.99964666    -0.27600
C256        C  0.11476916  0.92116427  0.98158681    -0.02800
C257        C  0.10126397  0.95278357  0.52073546     0.05800
C258        C  0.10925725  0.92346198  0.56236933     0.03900
H259        H  0.11346366  0.93049882  0.94284473     0.09000
H260        H  0.10285244  0.93500551  0.60021407     0.06900
C261        C  0.35465594  0.58939427  0.77183420     0.16700
C262        C  0.39559142  0.59117626  0.78740542    -0.32300
C263        C  0.41636432  0.61519684  0.75686467     0.21100
C264        C  0.39651984  0.63839966  0.71381046     0.03300
C265        C  0.35532444  0.63705479  0.69845876    -0.22100
C266        C  0.33523488  0.61126420  0.72801609     0.12500
S267        S  0.32740635  0.55552303  0.79972014    -0.05700
C268        C  0.28995810  0.56967604  0.75134922    -0.09200
C269        C  0.29795498  0.60014859  0.71614927    -0.25800
S270        S  0.42720779  0.66581050  0.68220503    -0.03000
C271        C  0.46784414  0.64386515  0.72629788    -0.16500
C272        C  0.45743443  0.61771710  0.76389992    -0.14500
H273        H  0.41149881  0.57241596  0.82056287     0.20900
H274        H  0.34033888  0.65367930  0.66398143     0.17000
H275        H  0.27967776  0.60981712  0.68151893     0.19500
H276        H  0.47843020  0.60244239  0.79542534     0.12800
C277        C  0.27439222  0.35959247  0.77083146     0.16700
C278        C  0.29910596  0.38862760  0.78851177    -0.32300
C279        C  0.33957336  0.38035743  0.76933530     0.21100
C280        C  0.35569192  0.34360938  0.73529781     0.03300
C281        C  0.33134408  0.31328544  0.71873495    -0.22100
C282        C  0.28999462  0.32273073  0.73677619     0.12500
S283        S  0.22295074  0.36790739  0.78601990    -0.05700
C284        C  0.22156691  0.32180838  0.74546703    -0.09200
C285        C  0.25983715  0.30022485  0.72258093    -0.25800
S286        S  0.40353591  0.34386187  0.71233641    -0.03000
C287        C  0.40074161  0.39448768  0.74830246    -0.16500
C288        C  0.36536894  0.40932282  0.77709439    -0.14500
H289        H  0.28629891  0.41835800  0.81393915     0.20900
H290        H  0.34316024  0.28537172  0.69116916     0.17000
H291        H  0.26492141  0.27051216  0.69629104     0.19500
H292        H  0.35728853  0.44200531  0.79958066     0.12800
N293        N  0.64254601  0.33341283  0.24380031    -0.02700
C294        C  0.68341515  0.30474754  0.23953393    -0.00100
C295        C  0.68482167  0.25627654  0.24045161    -0.23000
C296        C  0.64342305  0.25561215  0.24721652    -0.23200
C297        C  0.61805826  0.30369745  0.24950936    -0.00200
H298        H  0.71318842  0.22496650  0.24072794     0.13500
H299        H  0.63342762  0.22361274  0.25329476     0.13600
N300        N  0.72264980  0.54366219  0.25382114    -0.02700
C301        C  0.76325488  0.53755952  0.23977884    -0.00100
C302        C  0.77797566  0.49492853  0.21312537    -0.23000
C303        C  0.74537770  0.47402657  0.21041676    -0.23200
C304        C  0.71219946  0.50421137  0.23622132    -0.00200
H305        H  0.80884453  0.48069396  0.19686471     0.13500
H306        H  0.74574928  0.44051832  0.19149998     0.13600
N307        N  0.54743415  0.62771248  0.24082424    -0.02700
C308        C  0.50799005  0.65748425  0.22762198    -0.00100
C309        C  0.50910513  0.70508239  0.22559100    -0.23000
C310        C  0.55053123  0.70421474  0.23905598    -0.23200
C311        C  0.57339880  0.65604753  0.24826560    -0.00200
H312        H  0.98219154  0.73725487  0.21846782     0.13500
H313        H  0.56224613  0.73547187  0.24366667     0.13600
O314        O  0.62266121  0.40911636  0.28307480    -0.72200
O315        O  0.56934805  0.55312516  0.28184582    -0.73200
O316        O  0.53858473  0.46947091  0.28047115    -0.61800
O317        O  0.65428220  0.49313875  0.28086095    -0.70200
O318        O  0.65156523  0.48903540  0.19877050    -0.69800
O319        O  0.53665593  0.47114662  0.19821902    -0.61000
O320        O  0.56773708  0.55286151  0.19963488    -0.73500
O321        O  0.61960404  0.40732781  0.20087817    -0.72300
Cu322      Cu  0.59636722  0.48121351  0.28458226     1.04600
Cu323      Cu  0.59385435  0.48007278  0.19655572     1.04300
C324        C  0.62781901  0.38538060  0.24254478     0.94000
C325        C  0.56122322  0.57578300  0.24078681     0.93100
C326        C  0.52010608  0.46592425  0.23859415     0.85300
C327        C  0.67051793  0.49558711  0.23910621     0.91600
N328        N  0.96912577  0.41742047  0.24862963    -0.02700
C329        C  0.92639161  0.42721258  0.23962093    -0.00100
C330        C  0.90897426  0.47346778  0.22029182    -0.23000
C331        C  0.94216027  0.49293559  0.21705240    -0.23200
C332        C  0.47821314  0.45836123  0.23574981    -0.00200
H333        H  0.87592607  0.49095552  0.20901582     0.13500
H334        H  0.94029958  0.52835089  0.20252006     0.13600
C335        C  0.51999801  0.29785619  0.31487039     0.87200
C336        C  0.56615067  0.29887024  0.31054442    -0.53000
C337        C  0.57376230  0.31867481  0.26763055     0.10200
C338        C  0.53318239  0.33804615  0.23357504     0.21100
C339        C  0.49193139  0.35071520  0.30857593    -0.53700
C340        C  0.49848096  0.37188680  0.26601740     0.10300
C341        C  0.51070549  0.27211946  0.26741879    -0.53300
C342        C  0.51791903  0.29281666  0.22478178     0.10800
H343        H  0.59179324  0.28011376  0.33661714     0.15300
H344        H  0.53882765  0.35535800  0.19916433     0.01100
H345        H  0.96721123  0.36893240  0.33382693     0.15600
H346        H  0.50017640  0.23976922  0.26758066     0.15400
C347        C  0.67217899  0.66066889  0.32296808     0.87200
C348        C  0.62603825  0.65885966  0.31484337    -0.53000
C349        C  0.61780359  0.63999448  0.27026860     0.10200
C350        C  0.65774994  0.62232157  0.23865920     0.21100
C351        C  0.70095999  0.60826674  0.31615763    -0.53700
C352        C  0.69359839  0.58818692  0.27197620     0.10300
C353        C  0.67986338  0.68805084  0.27740746    -0.53300
C354        C  0.67208934  0.66809617  0.23327819     0.10800
H355        H  0.60071573  0.67697328  0.33948881     0.15300
H356        H  0.65162107  0.60567365  0.20293545     0.01100
H357        H  0.72650884  0.58974985  0.34236661     0.15600
H358        H  0.68998524  0.72066238  0.27964203     0.15400
N359        N  0.52559189  0.21454480  0.41789033    -0.26500
N360        N  0.51524435  0.25663039  0.44177961    -0.34400
C361        C  0.50860951  0.29298798  0.40872257     0.01800
C362        C  0.51417238  0.27301981  0.36163880     0.07800
C363        C  0.52579738  0.22313582  0.36926994    -0.05300
H364        H  0.50243023  0.33100015  0.41844415     0.08500
H365        H  0.53604879  0.19490252  0.34170032     0.09700
Cu366      Cu  0.51429572  0.26281515  0.01846718     0.44200
Cu367      Cu  0.54308695  0.14628300  0.45114084     0.42000
Cu368      Cu  0.53565384  0.14715772  0.08196553     0.43900
N369        N  0.51562910  0.25622941  0.09503421    -0.33900
N370        N  0.52179545  0.21403197  0.11753370    -0.28200
C371        C  0.52173289  0.22119064  0.16664996    -0.04300
C372        C  0.51571964  0.27014523  0.17578684     0.07900
C373        C  0.51206844  0.29134840  0.12952344     0.01700
H374        H  0.52796079  0.19232819  0.19371445     0.09400
H375        H  0.50791566  0.32924634  0.12147546     0.08500
N376        N  0.55616184  0.08335324  0.04136707    -0.35400
N377        N  0.55941696  0.08274456  0.49285972    -0.27600
C378        C  0.57541845  0.03622476  0.47773686    -0.02800
C379        C  0.58261640  0.00623419  0.01886647     0.05800
C380        C  0.56997576  0.03739523  0.05850384     0.03900
H381        H  0.58194187  0.02517939  0.43978331     0.09000
H382        H  0.57144225  0.02754324  0.09711297     0.07800
N383        N  0.67004207  0.74250097  0.42841763    -0.26500
N384        N  0.67685010  0.70083292  0.45210773    -0.34400
C385        C  0.68175057  0.66467096  0.41857631     0.01800
C386        C  0.67874740  0.68440116  0.37154679     0.07800
C387        C  0.67060378  0.73396138  0.37957266    -0.05300
H388        H  0.68490262  0.62720834  0.42758238     0.08500
H389        H  0.66246377  0.76240355  0.35194090     0.09700
Cu390      Cu  0.67497151  0.69649822  0.02862336     0.44200
Cu391      Cu  0.65325065  0.81078885  0.46123810     0.42000
Cu392      Cu  0.64553303  0.81473047  0.09176695     0.43900
N393        N  0.67215159  0.70508758  0.10496890    -0.33900
N394        N  0.66299128  0.74785075  0.12758122    -0.28200
C395        C  0.66357601  0.74085553  0.17662558    -0.04300
C396        C  0.67302153  0.69145555  0.18535107     0.07900
C397        C  0.67815106  0.66983567  0.13914263     0.01700
H398        H  0.65546505  0.76985729  0.20370566     0.09400
H399        H  0.68504491  0.63143055  0.13083861     0.08500
N400        N  0.62663940  0.87694597  0.04815414    -0.35400
N401        N  0.62991671  0.87555645  0.49964611    -0.27600
C402        C  0.61476797  0.92116432  0.48158626    -0.02800
C403        C  0.60126383  0.95278352  0.02073531     0.05800
C404        C  0.60925688  0.92346195  0.06236919     0.03900
H405        H  0.61346235  0.93049891  0.44284414     0.09000
H406        H  0.60285203  0.93500555  0.10021393     0.06900
C407        C  0.85465649  0.58939282  0.27183473     0.16700
C408        C  0.89559219  0.59117433  0.28740565    -0.32300
C409        C  0.91636480  0.61519566  0.25686530     0.21100
C410        C  0.89651987  0.63839956  0.21381177     0.03300
C411        C  0.85532424  0.63705517  0.19846045    -0.22100
C412        C  0.83523492  0.61126396  0.22801733     0.12500
S413        S  0.82740718  0.55552082  0.29971999    -0.05700
C414        C  0.78995831  0.56967529  0.25134981    -0.09200
C415        C  0.79795486  0.60014868  0.21615054    -0.25800
S416        S  0.92720754  0.66581112  0.18220675    -0.03000
C417        C  0.96784434  0.64386468  0.22629882    -0.16500
C418        C  0.95743502  0.61771567  0.26390033    -0.14500
H419        H  0.91149992  0.57241317  0.32056249     0.20900
H420        H  0.84033827  0.65368055  0.16398350     0.17000
H421        H  0.77967724  0.60981809  0.18152050     0.19500
H422        H  0.97843107  0.60244016  0.29542522     0.12800
C423        C  0.77439216  0.35959262  0.27083027     0.16700
C424        C  0.79910605  0.38862746  0.28851087    -0.32300
C425        C  0.83957353  0.38035721  0.26933463     0.21100
C426        C  0.85569201  0.34360931  0.23529693     0.03300
C427        C  0.83134401  0.31328568  0.21873370    -0.22100
C428        C  0.78999450  0.32273102  0.23677483     0.12500
S429        S  0.72295055  0.36790778  0.28601833    -0.05700
C430        C  0.72156662  0.32180897  0.24546527    -0.09200
C431        C  0.75983689  0.30022543  0.22257929    -0.25800
S432        S  0.90353618  0.34386154  0.21233590    -0.03000
C433        C  0.90074197  0.39448716  0.24830223    -0.16500
C434        C  0.86536928  0.40932234  0.27709410    -0.14500
H435        H  0.78629901  0.41835785  0.31393840     0.20900
H436        H  0.84316010  0.28537209  0.19116771     0.17000
H437        H  0.76492112  0.27051277  0.19628924     0.19500
H438        H  0.85728894  0.44200474  0.29958054     0.12800
N439        N  0.64254605  0.33341283  0.74380048    -0.02700
C440        C  0.68341520  0.30474754  0.73953411    -0.00100
C441        C  0.68482171  0.25627652  0.74045143    -0.23000
C442        C  0.64342308  0.25561214  0.74721604    -0.23200
C443        C  0.61805828  0.30369741  0.74950912    -0.00200
H444        H  0.71318846  0.22496643  0.74072771     0.13500
H445        H  0.63342759  0.22361264  0.75329403     0.13600
N446        N  0.72264980  0.54366240  0.75382104    -0.02700
C447        C  0.76325486  0.53755977  0.73977866    -0.00100
C448        C  0.77797559  0.49492879  0.71312522    -0.23000
C449        C  0.74537775  0.47402666  0.71041689    -0.23200
C450        C  0.71219951  0.50421144  0.73622151    -0.00200
H451        H  0.80884446  0.48069432  0.69686431     0.13500
H452        H  0.74574934  0.44051836  0.69150021     0.13600
N453        N  0.54743408  0.62771249  0.74082434    -0.02700
C454        C  0.50799000  0.65748422  0.72762196    -0.00100
C455        C  0.50910506  0.70508239  0.72559078    -0.23000
C456        C  0.55053116  0.70421466  0.73905576    -0.23200
C457        C  0.57339873  0.65604755  0.74826549    -0.00200
H458        H  0.98219138  0.73725468  0.71846776     0.13500
H459        H  0.56224614  0.73547193  0.74366643     0.13600
O460        O  0.62266129  0.40911637  0.78307498    -0.72200
O461        O  0.56934812  0.55312523  0.78184600    -0.73200
O462        O  0.53858479  0.46947098  0.78047122    -0.61800
O463        O  0.65428218  0.49313883  0.78086113    -0.70200
O464        O  0.65156528  0.48903542  0.69877068    -0.69800
O465        O  0.53665596  0.47114671  0.69821910    -0.61000
O466        O  0.56773719  0.55286156  0.69963506    -0.73500
O467        O  0.61960391  0.40732781  0.70087836    -0.72300
Cu468      Cu  0.59636727  0.48121357  0.78458243     1.04600
Cu469      Cu  0.59385439  0.48007283  0.69655588     1.04300
C470        C  0.62781897  0.38538060  0.74254496     0.94000
C471        C  0.56122325  0.57578304  0.74078696     0.93100
C472        C  0.52010613  0.46592433  0.73859423     0.85300
C473        C  0.67051795  0.49558718  0.73910640     0.91600
N474        N  0.96912577  0.41742034  0.74862957    -0.02700
C475        C  0.92639157  0.42721261  0.73962105    -0.00100
C476        C  0.90897426  0.47346787  0.72029202    -0.23000
C477        C  0.94216032  0.49293556  0.71705251    -0.23200
C478        C  0.47821318  0.45836132  0.73574991    -0.00200
H479        H  0.87592610  0.49095571  0.70901616     0.13500
H480        H  0.94029970  0.52835088  0.70252018     0.13600
C481        C  0.51999813  0.29785606  0.81487025     0.87200
C482        C  0.56615080  0.29887009  0.81054425    -0.53000
C483        C  0.57376236  0.31867469  0.76763034     0.10200
C484        C  0.53318243  0.33804602  0.73357487     0.21100
C485        C  0.49193152  0.35071506  0.80857571    -0.53700
C486        C  0.49848103  0.37188673  0.76601723     0.10300
C487        C  0.51070556  0.27211930  0.76741869    -0.53300
C488        C  0.51791906  0.29281652  0.72478168     0.10800
H489        H  0.59179335  0.28011364  0.83661689     0.15300
H490        H  0.53882771  0.35535782  0.69916413     0.01100
H491        H  0.96721107  0.36893236  0.83382679     0.15600
H492        H  0.50017649  0.23976907  0.76758060     0.15400
C493        C  0.67217879  0.66066901  0.82296806     0.87200
C494        C  0.62603805  0.65885974  0.81484331    -0.53000
C495        C  0.61780349  0.63999453  0.77026849     0.10200
C496        C  0.65774983  0.62232176  0.73865908     0.21100
C497        C  0.70095984  0.60826689  0.81615752    -0.53700
C498        C  0.69359835  0.58818713  0.77197605     0.10300
C499        C  0.67986312  0.68805102  0.77740747    -0.53300
C500        C  0.67208912  0.66809643  0.73327814     0.10800
H501        H  0.60071551  0.67697332  0.83948864     0.15300
H502        H  0.65162097  0.60567381  0.70293532     0.01100
H503        H  0.72650872  0.58974996  0.84236658     0.15600
H504        H  0.68998504  0.72066261  0.77964216     0.15400
N505        N  0.52559233  0.21454481  0.91789038    -0.26500
N506        N  0.51524411  0.25663047  0.94177951    -0.34400
C507        C  0.50860903  0.29298798  0.90872236     0.01800
C508        C  0.51417253  0.27301971  0.86163869     0.07800
C509        C  0.52579808  0.22313569  0.86926995    -0.05300
H510        H  0.50242923  0.33100034  0.91844391     0.08500
H511        H  0.53604993  0.19490250  0.84170056     0.09700
Cu512      Cu  0.51429621  0.26281487  0.51846727     0.44200
Cu513      Cu  0.54308795  0.14628305  0.95114104     0.42000
Cu514      Cu  0.53565302  0.14715777  0.58196534     0.43900
N515        N  0.51562920  0.25622932  0.59503415    -0.33900
N516        N  0.52179517  0.21403194  0.61753361    -0.28200
C517        C  0.52173249  0.22119064  0.66664986    -0.04300
C518        C  0.51571959  0.27014518  0.67578672     0.07900
C519        C  0.51206868  0.29134827  0.62952335     0.01700
H520        H  0.52796003  0.19232830  0.69371436     0.09400
H521        H  0.50791620  0.32924623  0.62147533     0.08500
N522        N  0.55616044  0.08335321  0.54136682    -0.35400
N523        N  0.55941840  0.08274460  0.99285999    -0.27600
C524        C  0.57542029  0.03622481  0.97773718    -0.02800
C525        C  0.58261441  0.00623413  0.51886606     0.05800
C526        C  0.56997402  0.03739516  0.55850351     0.03900
H527        H  0.58194369  0.02517944  0.93978372     0.09000
H528        H  0.57144062  0.02754315  0.59711259     0.07800
N529        N  0.67004218  0.74250098  0.92841776    -0.26500
N530        N  0.67684984  0.70083298  0.95210781    -0.34400
C531        C  0.68175009  0.66467103  0.91857634     0.01800
C532        C  0.67874714  0.68440127  0.87154684     0.07800
C533        C  0.67060391  0.73396143  0.87957278    -0.05300
H534        H  0.68490187  0.62720855  0.92758226     0.08500
H535        H  0.66246425  0.76240364  0.85194105     0.09700
Cu536      Cu  0.67497197  0.69649796  0.52862323     0.44200
Cu537      Cu  0.65325135  0.81078887  0.96123829     0.42000
Cu538      Cu  0.64553248  0.81473059  0.59176671     0.43900
N539        N  0.67215165  0.70508763  0.60496875    -0.33900
N540        N  0.66299107  0.74785085  0.62758100    -0.28200
C541        C  0.66357575  0.74085571  0.67662537    -0.04300
C542        C  0.67302147  0.69145572  0.68535099     0.07900
C543        C  0.67815119  0.66983575  0.63914255     0.01700
H544        H  0.65546453  0.76985755  0.70370537     0.09400
H545        H  0.68504518  0.63143067  0.63083858     0.08500
N546        N  0.62663830  0.87694604  0.54815370    -0.35400
N547        N  0.62991785  0.87555636  0.99964654    -0.27600
C548        C  0.61476955  0.92116424  0.98158678    -0.02800
C549        C  0.60126205  0.95278350  0.52073486     0.05800
C550        C  0.60925543  0.92346197  0.56236874     0.03900
H551        H  0.61346403  0.93049881  0.94284457     0.09000
H552        H  0.60285062  0.93500552  0.60021347     0.06900
C553        C  0.85465628  0.58939348  0.77183419     0.16700
C554        C  0.89559198  0.59117495  0.78740515    -0.32300
C555        C  0.91636469  0.61519598  0.75686467     0.21100
C556        C  0.89651997  0.63839939  0.71381082     0.03300
C557        C  0.85532441  0.63705488  0.69845939    -0.22100
C558        C  0.83523492  0.61126409  0.72801649     0.12500
S559        S  0.82740686  0.55552191  0.79971980    -0.05700
C560        C  0.78995823  0.56967570  0.75134930    -0.09200
C561        C  0.79795492  0.60014869  0.71614968    -0.25800
S562        S  0.92720783  0.66581043  0.68220551    -0.03000
C563        C  0.96784441  0.64386442  0.72629794    -0.16500
C564        C  0.95743487  0.61771600  0.76389978    -0.14500
H565        H  0.91149959  0.57241397  0.82056211     0.20900
H566        H  0.84033860  0.65367987  0.66398220     0.17000
H567        H  0.77967748  0.60981770  0.68151951     0.19500
H568        H  0.97843080  0.60244087  0.79542489     0.12800
C569        C  0.77439196  0.35959288  0.77083055     0.16700
C570        C  0.79910573  0.38862794  0.78851097    -0.32300
C571        C  0.83957335  0.38035743  0.76933496     0.21100
C572        C  0.85569211  0.34360908  0.73529783     0.03300
C573        C  0.83134424  0.31328521  0.71873491    -0.22100
C574        C  0.78999460  0.32273080  0.73677570     0.12500
S575        S  0.72295028  0.36790813  0.78601837    -0.05700
C576        C  0.72156664  0.32180896  0.74546564    -0.09200
C577        C  0.75983714  0.30022496  0.72258023    -0.25800
S578        S  0.90353636  0.34386119  0.71233682    -0.03000
C579        C  0.90074182  0.39448733  0.74830244    -0.16500
C580        C  0.86536894  0.40932279  0.77709399    -0.14500
H581        H  0.78629855  0.41835859  0.81393804     0.20900
H582        H  0.84316051  0.28537127  0.69116929     0.17000
H583        H  0.76492160  0.27051199  0.69629067     0.19500
H584        H  0.85728836  0.44200551  0.79957997     0.12800
loop_ 
_geom_bond_atom_site_label_1 
_geom_bond_atom_site_label_2 
_geom_bond_distance 
_geom_bond_site_symmetry_2 
_ccdc_geom_bond_type 
N1            C5   1.350       .  A
N1            C2   1.353       .  A
N1           C32   1.427       .  S
C2            C3   1.382       .  A
C2          C138   1.475       .  S
C3            C4   1.381       .  A
C3            H6   1.082       .  S
C4            C5   1.386       .  A
C4            H7   1.082       .  S
C5           C45   1.486       .  S
N8           C12   1.355       .  A
N8            C9   1.357       .  A
N8           C60   1.441       .  S
C9           C10   1.381       .  A
C9          C122   1.473       .  S
C10          C11   1.372       .  A
C10          H13   1.080       .  S
C11          C12   1.379       .  A
C11          H14   1.082       .  S
C12          C35   1.464       .  S
N15          C19   1.351       .  A
N15          C16   1.354       .  A
N15          C33   1.425       .  S
C16          C17   1.383       .  A
C16         C417   1.479   1_455  S
C17          C18   1.382       .  A
C17         H312   1.082   1_455  S
C18          C19   1.383       .  A
C18          H21   1.082       .  S
C19          C57   1.487       .  S
H20         C309   1.082       .  S
O22         Cu30   1.994       .  S
O22          C32   1.274       .  A
O23         Cu30   1.992       .  S
O23          C33   1.273       .  A
O24         Cu30   2.017       .  S
O24          C34   1.279       .  A
O25         Cu30   2.032       .  S
O25          C35   1.281       .  A
O26         Cu31   1.980       .  S
O26          C35   1.272       .  A
O27         Cu31   1.967       .  S
O27          C34   1.270       .  A
O28         Cu31   2.013       .  S
O28          C33   1.279       .  A
O29         Cu31   2.011       .  S
O29          C32   1.279       .  A
Cu30        Cu31   2.380       .  S
C34          C40   1.450   1_455  S
N36          C37   1.353       .  A
N36         C332   1.352       .  A
N36         C340   1.444       .  S
C37          C38   1.381       .  A
C37         C141   1.464       .  S
C38          C39   1.370       .  A
C38          H41   1.080       .  S
C39         C332   1.377       .  A
C39          H42   1.081       .  S
C40         N328   1.352       .  A
C40         C331   1.377       .  A
C43          C44   1.529       .  S
C43          C49   1.538       .  S
C43          C47   1.530   1_455  S
C43          C70   1.509       .  S
C44          H51   1.087       .  S
C44          C45   1.365       .  D
C45          C46   1.546       .  S
C46          C50   1.540       .  S
C46          C48   1.551   1_455  S
C46          H52   1.110       .  S
C47         H345   1.086       .  S
C47          C48   1.365       .  D
C48         N328   1.444       .  S
C49          H54   1.085       .  S
C49          C50   1.367       .  D
C50          C80   1.478       .  S
H53         C339   1.086       .  S
C55          C56   1.533       .  S
C55          C61   1.542       .  S
C55          C59   1.533       .  S
C55          C94   1.510       .  S
C56          H63   1.087       .  S
C56          C57   1.365       .  D
C57          C58   1.544       .  S
C58          C62   1.536       .  S
C58          C60   1.548       .  S
C58          H64   1.110       .  S
C59          H65   1.086       .  S
C59          C60   1.364       .  D
C61          H66   1.085       .  S
C61          C62   1.365       .  D
C62         C104   1.475       .  S
N67          C71   1.343       .  A
N67          N68   1.323       .  A
N67         Cu75   2.080       .  S
N68          C69   1.347       .  A
N68        Cu220   2.081       .  S
C69          C70   1.387       .  A
C69          H72   1.082       .  S
C70          C71   1.386       .  A
C71          H73   1.082       .  S
Cu74         N77   2.081       .  S
Cu74        N214   2.081   1_554  S
Cu75         N85   2.079       .  S
Cu76         N78   2.073       .  S
Cu76         N84   2.072       .  S
N77          C81   1.348       .  A
N77          N78   1.322       .  A
N78          C79   1.342       .  A
C79          C80   1.383       .  A
C79          H82   1.082       .  S
C80          C81   1.385       .  A
C81          H83   1.082       .  S
N84          C88   1.345       .  A
N84         N231   1.321   1_554  A
N85          C86   1.347       .  A
N85         N230   1.321       .  A
C86         C233   1.386       .  A
C86          H89   1.082       .  S
C87          C88   1.384       .  A
C87         C232   1.386   1_554  A
C87         C111   1.475   1_545  S
C88          H90   1.082       .  S
N91          C95   1.341       .  A
N91          N92   1.322       .  A
N91         Cu99   2.073       .  S
N92          C93   1.348       .  A
N92        Cu244   2.081       .  S
C93          C94   1.388       .  A
C93          H96   1.082       .  S
C94          C95   1.386       .  A
C95          H97   1.081       .  S
Cu98        N101   2.080       .  S
Cu98        N238   2.081   1_554  S
Cu99        N109   2.073       .  S
Cu100       N102   2.077       .  S
Cu100       N108   2.077       .  S
N101        C105   1.347       .  A
N101        N102   1.323       .  A
N102        C103   1.344       .  A
C103        C104   1.382       .  A
C103        H106   1.082       .  S
C104        C105   1.383       .  A
C105        H107   1.082       .  S
N108        C112   1.345       .  A
N108        N255   1.321   1_554  A
N109        C110   1.347       .  A
N109        N254   1.321       .  A
C110        C257   1.385       .  A
C110        H113   1.082       .  S
C111        C112   1.385       .  A
C111        C256   1.385   1_554  A
C112        H114   1.082       .  S
C115        C120   1.387       .  A
C115        C116   1.403       .  A
C115        S121   1.707       .  A
C116        C117   1.403       .  A
C116        H127   1.083       .  S
C117        C126   1.373       .  A
C117        C118   1.386       .  A
C118        C119   1.406       .  A
C118        S124   1.712       .  A
C119        C120   1.406       .  A
C119        H128   1.083       .  S
C120        C123   1.376       .  A
S121        C122   1.721       .  A
C122        C123   1.388       .  A
C123        H129   1.083       .  S
S124        C125   1.724       .  A
C125        C126   1.387       .  A
C125        C308   1.479       .  S
C126        H130   1.083       .  S
C131        C136   1.387       .  A
C131        C132   1.394       .  A
C131        S137   1.696       .  A
C132        C133   1.395       .  A
C132        H143   1.083       .  S
C133        C142   1.362       .  A
C133        C134   1.387       .  A
C134        C135   1.405       .  A
C134        S140   1.711       .  A
C135        C136   1.406       .  A
C135        H144   1.083       .  S
C136        C139   1.373       .  A
S137        C138   1.720       .  A
C138        C139   1.388       .  A
C139        H145   1.083       .  S
S140        C141   1.722       .  A
C141        C142   1.379       .  A
C142        H146   1.083       .  S
N147        C151   1.350       .  A
N147        C148   1.353       .  A
N147        C178   1.427       .  S
C148        C149   1.382       .  A
C148        C284   1.475       .  S
C149        C150   1.381       .  A
C149        H152   1.082       .  S
C150        C151   1.386       .  A
C150        H153   1.082       .  S
C151        C191   1.486       .  S
N154        C158   1.355       .  A
N154        C155   1.357       .  A
N154        C206   1.441       .  S
C155        C156   1.381       .  A
C155        C268   1.473       .  S
C156        C157   1.372       .  A
C156        H159   1.080       .  S
C157        C158   1.379       .  A
C157        H160   1.082       .  S
C158        C181   1.464       .  S
N161        C165   1.351       .  A
N161        C162   1.354       .  A
N161        C179   1.425       .  S
C162        C163   1.383       .  A
C162        C563   1.479   1_455  S
C163        C164   1.382       .  A
C163        H458   1.082   1_455  S
C164        C165   1.383       .  A
C164        H167   1.082       .  S
C165        C203   1.487       .  S
H166        C455   1.082       .  S
O168       Cu176   1.994       .  S
O168        C178   1.274       .  A
O169       Cu176   1.992       .  S
O169        C179   1.273       .  A
O170       Cu176   2.017       .  S
O170        C180   1.279       .  A
O171       Cu176   2.032       .  S
O171        C181   1.281       .  A
O172       Cu177   1.980       .  S
O172        C181   1.272       .  A
O173       Cu177   1.967       .  S
O173        C180   1.270       .  A
O174       Cu177   2.013       .  S
O174        C179   1.279       .  A
O175       Cu177   2.011       .  S
O175        C178   1.279       .  A
Cu176      Cu177   2.380       .  S
C180        C186   1.450   1_455  S
N182        C478   1.352       .  A
N182        C183   1.353       .  A
N182        C486   1.444       .  S
C183        C184   1.381       .  A
C183        C287   1.464       .  S
C184        C185   1.370       .  A
C184        H187   1.080       .  S
C185        C478   1.377       .  A
C185        H188   1.081       .  S
C186        N474   1.352       .  A
C186        C477   1.377       .  A
C189        C190   1.529       .  S
C189        C195   1.538       .  S
C189        C193   1.530   1_455  S
C189        C216   1.509       .  S
C190        H197   1.087       .  S
C190        C191   1.365       .  D
C191        C192   1.546       .  S
C192        C196   1.540       .  S
C192        C194   1.551   1_455  S
C192        H198   1.110       .  S
C193        H491   1.086       .  S
C193        C194   1.365       .  D
C194        N474   1.444       .  S
C195        H200   1.085       .  S
C195        C196   1.367       .  D
C196        C226   1.478       .  S
H199        C485   1.086       .  S
C201        C202   1.533       .  S
C201        C207   1.542       .  S
C201        C205   1.533       .  S
C201        C240   1.510       .  S
C202        H209   1.087       .  S
C202        C203   1.365       .  D
C203        C204   1.544       .  S
C204        C208   1.536       .  S
C204        C206   1.548       .  S
C204        H210   1.110       .  S
C205        H211   1.086       .  S
C205        C206   1.364       .  D
C207        H212   1.085       .  S
C207        C208   1.365       .  D
C208        C250   1.475       .  S
N213        C217   1.343       .  A
N213        N214   1.323       .  A
N213       Cu221   2.080       .  S
N214        C215   1.347       .  A
C215        C216   1.387       .  A
C215        H218   1.082       .  S
C216        C217   1.386       .  A
C217        H219   1.082       .  S
Cu220       N223   2.081       .  S
Cu221       N231   2.079       .  S
Cu222       N224   2.073       .  S
Cu222       N230   2.072       .  S
N223        C227   1.348       .  A
N223        N224   1.322       .  A
N224        C225   1.342       .  A
C225        C226   1.383       .  A
C225        H228   1.082       .  S
C226        C227   1.385       .  A
C227        H229   1.082       .  S
N230        C234   1.345       .  A
N231        C232   1.347       .  A
C232        H235   1.082       .  S
C233        C234   1.384       .  A
C233        C257   1.475   1_545  S
C234        H236   1.082       .  S
N237        C241   1.341       .  A
N237        N238   1.322       .  A
N237       Cu245   2.073       .  S
N238        C239   1.348       .  A
C239        C240   1.388       .  A
C239        H242   1.082       .  S
C240        C241   1.386       .  A
C241        H243   1.081       .  S
Cu244       N247   2.080       .  S
Cu245       N255   2.073       .  S
Cu246       N248   2.077       .  S
Cu246       N254   2.077       .  S
N247        C251   1.347       .  A
N247        N248   1.323       .  A
N248        C249   1.344       .  A
C249        C250   1.382       .  A
C249        H252   1.082       .  S
C250        C251   1.383       .  A
C251        H253   1.082       .  S
N254        C258   1.345       .  A
N255        C256   1.347       .  A
C256        H259   1.082       .  S
C257        C258   1.385       .  A
C258        H260   1.082       .  S
C261        C266   1.387       .  A
C261        C262   1.403       .  A
C261        S267   1.707       .  A
C262        C263   1.403       .  A
C262        H273   1.083       .  S
C263        C272   1.373       .  A
C263        C264   1.386       .  A
C264        C265   1.406       .  A
C264        S270   1.712       .  A
C265        C266   1.406       .  A
C265        H274   1.083       .  S
C266        C269   1.376       .  A
S267        C268   1.721       .  A
C268        C269   1.388       .  A
C269        H275   1.083       .  S
S270        C271   1.724       .  A
C271        C272   1.387       .  A
C271        C454   1.479       .  S
C272        H276   1.083       .  S
C277        C282   1.387       .  A
C277        C278   1.394       .  A
C277        S283   1.696       .  A
C278        C279   1.395       .  A
C278        H289   1.083       .  S
C279        C288   1.362       .  A
C279        C280   1.387       .  A
C280        C281   1.405       .  A
C280        S286   1.711       .  A
C281        C282   1.406       .  A
C281        H290   1.083       .  S
C282        C285   1.373       .  A
S283        C284   1.720       .  A
C284        C285   1.388       .  A
C285        H291   1.083       .  S
S286        C287   1.722       .  A
C287        C288   1.379       .  A
C288        H292   1.083       .  S
N293        C297   1.350       .  A
N293        C294   1.353       .  A
N293        C324   1.427       .  S
C294        C295   1.382       .  A
C294        C430   1.475       .  S
C295        C296   1.381       .  A
C295        H298   1.082       .  S
C296        C297   1.386       .  A
C296        H299   1.082       .  S
C297        C337   1.486       .  S
N300        C304   1.355       .  A
N300        C301   1.357       .  A
N300        C352   1.441       .  S
C301        C302   1.381       .  A
C301        C414   1.473       .  S
C302        C303   1.372       .  A
C302        H305   1.080       .  S
C303        C304   1.379       .  A
C303        H306   1.082       .  S
C304        C327   1.464       .  S
N307        C311   1.351       .  A
N307        C308   1.354       .  A
N307        C325   1.425       .  S
C308        C309   1.383       .  A
C309        C310   1.382       .  A
C310        C311   1.383       .  A
C310        H313   1.082       .  S
C311        C349   1.487       .  S
O314       Cu322   1.994       .  S
O314        C324   1.274       .  A
O315       Cu322   1.992       .  S
O315        C325   1.273       .  A
O316       Cu322   2.017       .  S
O316        C326   1.279       .  A
O317       Cu322   2.032       .  S
O317        C327   1.281       .  A
O318       Cu323   1.980       .  S
O318        C327   1.272       .  A
O319       Cu323   1.967       .  S
O319        C326   1.270       .  A
O320       Cu323   2.013       .  S
O320        C325   1.279       .  A
O321       Cu323   2.011       .  S
O321        C324   1.279       .  A
Cu322      Cu323   2.380       .  S
C326        C332   1.450       .  S
N328        C329   1.353       .  A
C329        C330   1.381       .  A
C329        C433   1.464       .  S
C330        C331   1.370       .  A
C330        H333   1.080       .  S
C331        H334   1.081       .  S
C335        C336   1.529       .  S
C335        C341   1.538       .  S
C335        C339   1.530       .  S
C335        C362   1.509       .  S
C336        H343   1.087       .  S
C336        C337   1.365       .  D
C337        C338   1.546       .  S
C338        C342   1.540       .  S
C338        C340   1.551       .  S
C338        H344   1.110       .  S
C339        C340   1.365       .  D
C341        H346   1.085       .  S
C341        C342   1.367       .  D
C342        C372   1.478       .  S
C347        C348   1.533       .  S
C347        C353   1.542       .  S
C347        C351   1.533       .  S
C347        C386   1.510       .  S
C348        H355   1.087       .  S
C348        C349   1.365       .  D
C349        C350   1.544       .  S
C350        C354   1.536       .  S
C350        C352   1.548       .  S
C350        H356   1.110       .  S
C351        H357   1.086       .  S
C351        C352   1.364       .  D
C353        H358   1.085       .  S
C353        C354   1.365       .  D
C354        C396   1.475       .  S
N359        C363   1.343       .  A
N359        N360   1.323       .  A
N359       Cu367   2.080       .  S
N360        C361   1.347       .  A
N360       Cu512   2.081       .  S
C361        C362   1.387       .  A
C361        H364   1.082       .  S
C362        C363   1.386       .  A
C363        H365   1.082       .  S
Cu366       N506   2.081   1_554  S
Cu366       N369   2.081       .  S
Cu367       N377   2.079       .  S
Cu368       N370   2.073       .  S
Cu368       N376   2.072       .  S
N369        C373   1.348       .  A
N369        N370   1.322       .  A
N370        C371   1.342       .  A
C371        C372   1.383       .  A
C371        H374   1.082       .  S
C372        C373   1.385       .  A
C373        H375   1.082       .  S
N376        C380   1.345       .  A
N376        N523   1.321   1_554  A
N377        C378   1.347       .  A
N377        N522   1.321       .  A
C378        C525   1.386       .  A
C378        H381   1.082       .  S
C379        C524   1.386   1_554  A
C379        C380   1.383       .  A
C379        C403   1.475   1_545  S
C380        H382   1.082       .  S
N383        C387   1.341       .  A
N383        N384   1.322       .  A
N383       Cu391   2.073       .  S
N384        C385   1.348       .  A
N384       Cu536   2.081       .  S
C385        C386   1.388       .  A
C385        H388   1.082       .  S
C386        C387   1.386       .  A
C387        H389   1.081       .  S
Cu390       N530   2.081   1_554  S
Cu390       N393   2.080       .  S
Cu391       N401   2.073       .  S
Cu392       N394   2.077       .  S
Cu392       N400   2.077       .  S
N393        C397   1.347       .  A
N393        N394   1.323       .  A
N394        C395   1.344       .  A
C395        C396   1.382       .  A
C395        H398   1.082       .  S
C396        C397   1.383       .  A
C397        H399   1.082       .  S
N400        C404   1.345       .  A
N400        N547   1.321   1_554  A
N401        C402   1.347       .  A
N401        N546   1.321       .  A
C402        C549   1.385       .  A
C402        H405   1.082       .  S
C403        C548   1.385   1_554  A
C403        C404   1.385       .  A
C404        H406   1.082       .  S
C407        C412   1.387       .  A
C407        C408   1.403       .  A
C407        S413   1.707       .  A
C408        C409   1.403       .  A
C408        H419   1.083       .  S
C409        C418   1.373       .  A
C409        C410   1.386       .  A
C410        C411   1.406       .  A
C410        S416   1.712       .  A
C411        C412   1.406       .  A
C411        H420   1.083       .  S
C412        C415   1.376       .  A
S413        C414   1.721       .  A
C414        C415   1.388       .  A
C415        H421   1.083       .  S
S416        C417   1.724       .  A
C417        C418   1.387       .  A
C418        H422   1.083       .  S
C423        C428   1.387       .  A
C423        C424   1.394       .  A
C423        S429   1.696       .  A
C424        C425   1.395       .  A
C424        H435   1.083       .  S
C425        C434   1.362       .  A
C425        C426   1.387       .  A
C426        C427   1.405       .  A
C426        S432   1.711       .  A
C427        C428   1.406       .  A
C427        H436   1.083       .  S
C428        C431   1.373       .  A
S429        C430   1.720       .  A
C430        C431   1.388       .  A
C431        H437   1.083       .  S
S432        C433   1.722       .  A
C433        C434   1.379       .  A
C434        H438   1.083       .  S
N439        C443   1.350       .  A
N439        C440   1.353       .  A
N439        C470   1.427       .  S
C440        C441   1.382       .  A
C440        C576   1.475       .  S
C441        C442   1.381       .  A
C441        H444   1.082       .  S
C442        C443   1.386       .  A
C442        H445   1.082       .  S
C443        C483   1.486       .  S
N446        C450   1.355       .  A
N446        C447   1.357       .  A
N446        C498   1.441       .  S
C447        C448   1.381       .  A
C447        C560   1.473       .  S
C448        C449   1.372       .  A
C448        H451   1.080       .  S
C449        C450   1.379       .  A
C449        H452   1.082       .  S
C450        C473   1.464       .  S
N453        C457   1.351       .  A
N453        C454   1.354       .  A
N453        C471   1.425       .  S
C454        C455   1.383       .  A
C455        C456   1.382       .  A
C456        C457   1.383       .  A
C456        H459   1.082       .  S
C457        C495   1.487       .  S
O460       Cu468   1.994       .  S
O460        C470   1.274       .  A
O461       Cu468   1.992       .  S
O461        C471   1.273       .  A
O462       Cu468   2.017       .  S
O462        C472   1.279       .  A
O463       Cu468   2.032       .  S
O463        C473   1.281       .  A
O464       Cu469   1.980       .  S
O464        C473   1.272       .  A
O465       Cu469   1.967       .  S
O465        C472   1.270       .  A
O466       Cu469   2.013       .  S
O466        C471   1.279       .  A
O467       Cu469   2.011       .  S
O467        C470   1.279       .  A
Cu468      Cu469   2.380       .  S
C472        C478   1.450       .  S
N474        C475   1.353       .  A
C475        C476   1.381       .  A
C475        C579   1.464       .  S
C476        C477   1.370       .  A
C476        H479   1.080       .  S
C477        H480   1.081       .  S
C481        C482   1.529       .  S
C481        C487   1.538       .  S
C481        C485   1.530       .  S
C481        C508   1.509       .  S
C482        H489   1.087       .  S
C482        C483   1.365       .  D
C483        C484   1.546       .  S
C484        C488   1.540       .  S
C484        C486   1.551       .  S
C484        H490   1.110       .  S
C485        C486   1.365       .  D
C487        H492   1.085       .  S
C487        C488   1.367       .  D
C488        C518   1.478       .  S
C493        C494   1.533       .  S
C493        C499   1.542       .  S
C493        C497   1.533       .  S
C493        C532   1.510       .  S
C494        H501   1.087       .  S
C494        C495   1.365       .  D
C495        C496   1.544       .  S
C496        C500   1.536       .  S
C496        C498   1.548       .  S
C496        H502   1.110       .  S
C497        H503   1.086       .  S
C497        C498   1.364       .  D
C499        H504   1.085       .  S
C499        C500   1.365       .  D
C500        C542   1.475       .  S
N505        C509   1.343       .  A
N505        N506   1.323       .  A
N505       Cu513   2.080       .  S
N506        C507   1.347       .  A
C507        C508   1.387       .  A
C507        H510   1.082       .  S
C508        C509   1.386       .  A
C509        H511   1.082       .  S
Cu512       N515   2.081       .  S
Cu513       N523   2.079       .  S
Cu514       N516   2.073       .  S
Cu514       N522   2.072       .  S
N515        C519   1.348       .  A
N515        N516   1.322       .  A
N516        C517   1.342       .  A
C517        C518   1.383       .  A
C517        H520   1.082       .  S
C518        C519   1.385       .  A
C519        H521   1.082       .  S
N522        C526   1.345       .  A
N523        C524   1.347       .  A
C524        H527   1.082       .  S
C525        C526   1.384       .  A
C525        C549   1.475   1_545  S
C526        H528   1.082       .  S
N529        C533   1.341       .  A
N529        N530   1.322       .  A
N529       Cu537   2.073       .  S
N530        C531   1.348       .  A
C531        C532   1.388       .  A
C531        H534   1.082       .  S
C532        C533   1.386       .  A
C533        H535   1.081       .  S
Cu536       N539   2.080       .  S
Cu537       N547   2.073       .  S
Cu538       N540   2.077       .  S
Cu538       N546   2.077       .  S
N539        C543   1.347       .  A
N539        N540   1.323       .  A
N540        C541   1.344       .  A
C541        C542   1.382       .  A
C541        H544   1.082       .  S
C542        C543   1.383       .  A
C543        H545   1.082       .  S
N546        C550   1.345       .  A
N547        C548   1.347       .  A
C548        H551   1.082       .  S
C549        C550   1.385       .  A
C550        H552   1.082       .  S
C553        C558   1.387       .  A
C553        C554   1.403       .  A
C553        S559   1.707       .  A
C554        C555   1.403       .  A
C554        H565   1.083       .  S
C555        C564   1.373       .  A
C555        C556   1.386       .  A
C556        C557   1.406       .  A
C556        S562   1.712       .  A
C557        C558   1.406       .  A
C557        H566   1.083       .  S
C558        C561   1.376       .  A
S559        C560   1.721       .  A
C560        C561   1.388       .  A
C561        H567   1.083       .  S
S562        C563   1.724       .  A
C563        C564   1.387       .  A
C564        H568   1.083       .  S
C569        C574   1.387       .  A
C569        C570   1.394       .  A
C569        S575   1.696       .  A
C570        C571   1.395       .  A
C570        H581   1.083       .  S
C571        C580   1.362       .  A
C571        C572   1.387       .  A
C572        C573   1.405       .  A
C572        S578   1.711       .  A
C573        C574   1.406       .  A
C573        H582   1.083       .  S
C574        C577   1.373       .  A
S575        C576   1.720       .  A
C576        C577   1.388       .  A
C577        H583   1.083       .  S
S578        C579   1.722       .  A
C579        C580   1.379       .  A
C580        H584   1.083       .  S
