geometry optimzed in LAMMPS
_audit_creation_date              2020-11-30 
_audit_creation_method            'lammps2cif' 
_symmetry_space_group_name_H-M    'P1' 
_symmetry_Int_Tables_number       1 
_symmetry_cell_setting            triclinic 
loop_ 
_symmetry_equiv_pos_as_xyz 
  x,y,z 
_cell_length_a                    31.387470509406157 
_cell_length_b                    31.197944074893893 
_cell_length_c                    31.352747627256107 
_cell_angle_alpha                 91.87996499810771 
_cell_angle_beta                  90.09553668222563 
_cell_angle_gamma                 89.45711672825351 
loop_ 
_atom_site_label 
_atom_site_type_symbol 
_atom_site_fract_x 
_atom_site_fract_y 
_atom_site_fract_z 
_atom_site_charge 
C1          C  0.50216419  0.73451460  0.99787093     0.03020
C2          C  0.46453656  0.71038325  0.99860769    -0.13130
C3          C  0.46644024  0.66544619  0.99849625     0.00520
C4          C  0.50632234  0.64487029  0.99909581    -0.11660
C5          C  0.54399361  0.66844573  0.99752945     0.03010
C6          C  0.54190123  0.71322726  0.99649231    -0.11080
H7          H  0.43383079  0.72656036  0.99883703     0.08610
H8          H  0.50805721  0.61015263  0.99959666     0.06130
H9          H  0.57104445  0.73144928  0.99487817     0.05980
C10         C  0.73581866  0.49617600  0.99980848     0.03020
C11         C  0.71514935  0.53628148  0.99824310    -0.13130
C12         C  0.67058981  0.53869576  0.99804560     0.00520
C13         C  0.64678861  0.50114307  0.00004073    -0.11660
C14         C  0.66707039  0.46115117  0.00180950     0.03010
C15         C  0.71162975  0.45857901  0.00141756    -0.11080
H16         H  0.73364133  0.56535912  0.99683381     0.08610
H17         H  0.61226271  0.50304420  0.00010244     0.06130
H18         H  0.72738902  0.42756403  0.00235227     0.05980
C19         C  0.49817706  0.26834205  0.00534670     0.03020
C20         C  0.53667374  0.29114587  0.00655090    -0.13130
C21         C  0.53616118  0.33605935  0.00693577     0.00520
C22         C  0.49721479  0.35821937  0.00782680    -0.11660
C23         C  0.45871902  0.33594363  0.00785992     0.03010
C24         C  0.45922759  0.29105558  0.00553011    -0.11080
H25         H  0.56687637  0.27403703  0.00683758     0.08610
H26         H  0.49685929  0.39300597  0.00889227     0.06130
H27         H  0.42939084  0.27384632  0.00471590     0.05980
C28         C  0.26459486  0.50626937  0.00547624     0.03020
C29         C  0.28895788  0.54349969  0.00136251    -0.13130
C30         C  0.33356519  0.54099396  0.00296870     0.00520
C31         C  0.35343873  0.50127788  0.00860029    -0.11660
C32         C  0.32957303  0.46391452  0.01155527     0.03010
C33         C  0.28498516  0.46637755  0.01028865    -0.11080
H34         H  0.27329440  0.57411435  0.99680931     0.08610
H35         H  0.38795606  0.49926017  0.00959008     0.06130
H36         H  0.26632192  0.43751579  0.01266619     0.05980
C37         C  0.99222292  0.50333309  0.73301523     0.03020
C38         C  0.98211816  0.46435522  0.71156422    -0.13130
C39         C  0.98164413  0.46150992  0.66696245     0.00520
C40         C  0.98778916  0.49828869  0.64357853    -0.11660
C41         C  0.99547659  0.53785549  0.66430061     0.03010
C42         C  0.99929986  0.53998785  0.70892242    -0.11080
H43         H  0.97631232  0.43586394  0.72943906     0.08610
H44         H  0.98685331  0.49604905  0.60898615     0.06130
H45         H  0.00738035  0.57020061  0.72479209     0.05980
C46         C  0.01672276  0.73412985  0.50431043     0.03020
C47         C  0.01194804  0.71030306  0.54126158    -0.13130
C48         C  0.01497556  0.66544208  0.53880340     0.00520
C49         C  0.02263490  0.64442435  0.49941913    -0.11660
C50         C  0.02708880  0.66769508  0.46230703     0.03010
C51         C  0.02432866  0.71265127  0.46479672    -0.11080
H52         H  0.00535758  0.72656749  0.57165373     0.08610
H53         H  0.02394241  0.60965741  0.49745340     0.06130
H54         H  0.02709027  0.73076045  0.43604935     0.05980
C55         C  0.00041311  0.50147138  0.26596632     0.03020
C56         C  0.99011839  0.46688030  0.29184355    -0.13130
C57         C  0.00355721  0.46663500  0.33487182     0.00520
C58         C  0.02609308  0.50258481  0.35080586    -0.11660
C59         C  0.02749298  0.54043794  0.32832829     0.03010
C60         C  0.01691219  0.53921289  0.28496472    -0.11080
H61         H  0.97194204  0.44074877  0.27794403     0.08610
H62         H  0.03874736  0.50304614  0.38295105     0.06130
H63         H  0.02066881  0.56760606  0.26639440     0.05980
C64         C  0.99441325  0.26688973  0.49634046     0.03020
C65         C  0.98670128  0.28564620  0.53690853    -0.13130
C66         C  0.97369508  0.32844166  0.54077265     0.00520
C67         C  0.96642804  0.35141384  0.50395622    -0.11660
C68         C  0.98259115  0.33669361  0.46425245     0.03010
C69         C  0.99644812  0.29339974  0.46078478    -0.11080
H70         H  0.98963085  0.26671785  0.56515796     0.08610
H71         H  0.95208191  0.38302198  0.50736526     0.06130
H72         H  0.00854473  0.27987002  0.43111536     0.05980
C73         C  0.49749795  0.99426726  0.73447167     0.03020
C74         C  0.53591840  0.99411281  0.71131650    -0.13130
C75         C  0.53528053  0.99216695  0.66656724     0.00520
C76         C  0.49619399  0.99170177  0.64508016    -0.11660
C77         C  0.45783148  0.99204046  0.66767161     0.03010
C78         C  0.45843664  0.99281501  0.71235792    -0.11080
H79         H  0.56614765  0.99520988  0.72804159     0.08610
H80         H  0.49562527  0.99098467  0.61046630     0.06130
H81         H  0.42868134  0.99268220  0.72983743     0.05980
C82         C  0.73210902  0.00320528  0.50174257     0.03020
C83         C  0.70866322  0.99507599  0.53898873    -0.13130
C84         C  0.66400707  0.99754645  0.53870725     0.00520
C85         C  0.64253740  0.00431056  0.50041915    -0.11660
C86         C  0.66516017  0.01022582  0.46278668     0.03010
C87         C  0.70970606  0.01202593  0.46391420    -0.11080
H88         H  0.72497345  0.98726683  0.56822665     0.08610
H89         H  0.60798462  0.00414139  0.49973612     0.06130
H90         H  0.72684565  0.01858724  0.43492702     0.05980
C91         C  0.49949322  0.00866078  0.26610994     0.03020
C92         C  0.46105383  0.01154351  0.28924015    -0.13130
C93         C  0.46167174  0.01274523  0.33402950     0.00520
C94         C  0.50073401  0.01191656  0.35551622    -0.11660
C95         C  0.53908570  0.00988583  0.33295137     0.03010
C96         C  0.53851942  0.00753947  0.28827102    -0.11080
H97         H  0.43086479  0.01267647  0.27248407     0.08610
H98         H  0.50130358  0.01299551  0.39013426     0.06130
H99         H  0.56828028  0.00529647  0.27082657     0.05980
C100        C  0.26510143  0.00213982  0.49872790     0.03020
C101        C  0.28677223  0.99736261  0.53759164    -0.13130
C102        C  0.33133345  0.99809030  0.53872419     0.00520
C103        C  0.35423300  0.00285035  0.50099074    -0.11660
C104        C  0.33304709  0.00752227  0.46210554     0.03010
C105        C  0.28838602  0.00737420  0.46098016    -0.11080
H106        H  0.26902641  0.99357333  0.56683129     0.08610
H107        H  0.38877680  0.00316818  0.50193362     0.06130
H108        H  0.27185771  0.01120943  0.43095589     0.05980
O109        O  0.06062462  0.00684577  0.53229031    -0.71890
O110        O  0.94001019  0.00082322  0.53379242    -0.72110
O111        O  0.00412679  0.94344878  0.53760695    -0.71970
O112        O  0.99682860  0.06465484  0.52829177    -0.71970
O113        O  0.00079208  0.05735340  0.45923982    -0.71930
O114        O  0.99871653  0.93613271  0.46868234    -0.71950
O115        O  0.93892257  0.99874437  0.46489702    -0.71900
O116        O  0.06010407  0.99525672  0.46361254    -0.72080
V117        V  0.00034145  0.00388430  0.53169283     1.35240
V118        V  0.99959567  0.99691427  0.46538856     1.35170
C119        C  0.08097651  0.00128499  0.49779804     0.77350
C120        C  0.91849633  0.99972825  0.49969060     0.77410
C121        C  0.00231703  0.91912729  0.50461565     0.77280
C122        C  0.99857607  0.08162843  0.49220900     0.77240
O123        O  0.53248025  0.00307479  0.06087448    -0.71890
O124        O  0.53248235  0.99906510  0.93973332    -0.72110
O125        O  0.53248275  0.06185326  0.00042037    -0.71970
O126        O  0.53240329  0.94026713  0.00023849    -0.71970
O127        O  0.46317191  0.94085723  0.99923290    -0.71930
O128        O  0.46325200  0.06256414  0.00123773    -0.71950
O129        O  0.46324154  0.00073881  0.93960638    -0.71900
O130        O  0.46324203  0.00274282  0.06083638    -0.72080
V131        V  0.53110536  0.00106792  0.00030238     1.35240
V132        V  0.46456365  0.00170940  0.00021727     1.35170
C133        C  0.49788874  0.00353624  0.08145667     0.77350
C134        C  0.49788374  0.99936618  0.91907371     0.77410
C135        C  0.49788213  0.08289566  0.00116451     0.77280
C136        C  0.49780037  0.91987721  0.99960187     0.77240
O137        O  0.94263384  0.46237206  0.99832169    -0.71890
O138        O  0.06334379  0.47173828  0.99701075    -0.72110
O139        O  0.00342817  0.46513522  0.05814957    -0.71970
O140        O  0.00156783  0.46921981  0.93725769    -0.71970
O141        O  0.00031825  0.53852489  0.94173554    -0.71930
O142        O  0.99487619  0.53416213  0.06255509    -0.71950
O143        O  0.05772279  0.54101261  0.00527326    -0.71900
O144        O  0.93705906  0.53189812  0.99897608    -0.72080
V145        V  0.00279216  0.46844218  0.99776167     1.35240
V146        V  0.99752934  0.53509028  0.00206442     1.35170
C147        C  0.91937612  0.49560767  0.99832134     0.77350
C148        C  0.08102799  0.50788686  0.00146429     0.77410
C149        C  0.99846433  0.49889967  0.08108648     0.77280
C150        C  0.00108353  0.50455633  0.91863478     0.77240
C151        C  0.19598096  0.96784602  0.47784087    -0.01960
C152        C  0.21797692  0.00220330  0.49781392     0.07720
C153        C  0.19497475  0.03628455  0.51773556    -0.02070
C154        C  0.15019644  0.03548423  0.51873472    -0.02070
C155        C  0.12805647  0.00172414  0.49759278     0.07850
C156        C  0.15116172  0.96806591  0.47680286    -0.02270
Br157      Br  0.12179776  0.92078395  0.44877496    -0.00820
Br158      Br  0.22719636  0.91922140  0.45393962    -0.00890
Br159      Br  0.11968048  0.08139411  0.54860028    -0.00850
Br160      Br  0.22483979  0.08499655  0.54233320    -0.00830
C161        C  0.36595304  0.97592990  0.39564222    -0.01960
C162        C  0.35871423  0.01192164  0.42305370     0.07720
C163        C  0.38117656  0.05010605  0.41687440    -0.02070
C164        C  0.41264903  0.05144568  0.38508376    -0.02070
C165        C  0.42208056  0.01445326  0.35964762     0.07850
C166        C  0.39775122  0.97709466  0.36413327    -0.02270
Br167      Br  0.41080156  0.92597213  0.33036722    -0.00820
Br168      Br  0.33512909  0.92366567  0.40391489    -0.00890
Br169      Br  0.44447445  0.10331971  0.37771987    -0.00850
Br170      Br  0.37028756  0.09982753  0.45362522    -0.00830
C171        C  0.47805951  0.97238623  0.15109317    -0.01960
C172        C  0.49802745  0.00499582  0.12856230     0.07720
C173        C  0.51851153  0.03878845  0.15119070    -0.02070
C174        C  0.51776256  0.04070461  0.19610601    -0.02070
C175        C  0.49897313  0.00736748  0.21872498     0.07850
C176        C  0.47990469  0.97276333  0.19595225    -0.02270
Br177      Br  0.45885377  0.92423342  0.22575743    -0.00820
Br178      Br  0.44932892  0.92621147  0.12061587    -0.00890
Br179      Br  0.54085511  0.09013208  0.22645306    -0.00850
Br180      Br  0.54663473  0.08333418  0.12080652    -0.00830
C181        C  0.59656909  0.97118276  0.37113137    -0.01960
C182        C  0.57926593  0.01015613  0.35742934     0.07720
C183        C  0.59559698  0.04940305  0.37353309    -0.02070
C184        C  0.62661225  0.04965548  0.40601779    -0.02070
C185        C  0.64134325  0.01065279  0.42216341     0.07850
C186        C  0.62770049  0.97142258  0.40340400    -0.02270
Br187      Br  0.64952079  0.91794944  0.42415302    -0.00820
Br188      Br  0.57495797  0.91755968  0.34805995    -0.00890
Br189      Br  0.64663454  0.10316686  0.43071207    -0.00850
Br190      Br  0.57316904  0.10267802  0.35302922    -0.00830
C191        C  0.84812388  0.01948905  0.53555507    -0.01960
C192        C  0.87071476  0.99993330  0.50063626     0.07720
C193        C  0.84683589  0.98074506  0.46666244    -0.02070
C194        C  0.80214772  0.97809217  0.46955040    -0.02070
C195        C  0.77979792  0.00155936  0.50188027     0.07850
C196        C  0.80339350  0.02367269  0.53396213    -0.02270
Br197      Br  0.77552473  0.06311367  0.57405239    -0.00820
Br198      Br  0.87667279  0.04127137  0.58653270    -0.00890
Br199      Br  0.77249602  0.93893899  0.43086939    -0.00850
Br200      Br  0.87352374  0.95781991  0.41511409    -0.00830
C201        C  0.59867935  0.02845142  0.63624363    -0.01960
C202        C  0.57492488  0.99081809  0.64106589     0.07720
C203        C  0.58522549  0.95352617  0.61641358    -0.02070
C204        C  0.61689025  0.95480655  0.58481607    -0.02070
C205        C  0.63857797  0.99326432  0.57795914     0.07850
C206        C  0.63039014  0.02970010  0.60460318    -0.02270
Br207      Br  0.65977318  0.08252005  0.59504633    -0.00820
Br208      Br  0.58517488  0.07939577  0.67031599    -0.00890
Br209      Br  0.62884180  0.90469856  0.54899706    -0.00850
Br210      Br  0.55455054  0.90115212  0.62478761    -0.00830
C211        C  0.36663789  0.03300058  0.60174229    -0.01960
C212        C  0.35511780  0.99512685  0.57911398     0.07720
C213        C  0.37221365  0.95537190  0.59097103    -0.02070
C214        C  0.40332617  0.95389589  0.62322672    -0.02070
C215        C  0.41758976  0.99221315  0.64327633     0.07850
C216        C  0.39802493  0.03158406  0.63371760    -0.02270
Br217      Br  0.41699749  0.08399295  0.66161727    -0.00820
Br218      Br  0.34186124  0.08718654  0.58638139    -0.00890
Br219      Br  0.42854902  0.89982018  0.63819367    -0.00850
Br220      Br  0.35514862  0.90348279  0.56075392    -0.00830
C221        C  0.51822554  0.96395860  0.84921637    -0.01960
C222        C  0.49797407  0.99815088  0.87197684     0.07720
C223        C  0.47796531  0.03127020  0.84960243    -0.02070
C224        C  0.47917978  0.03077800  0.80472554    -0.02070
C225        C  0.49808974  0.99581561  0.78183629     0.07850
C226        C  0.51721965  0.96216275  0.80430200    -0.02270
Br227      Br  0.54016182  0.91235714  0.77377831    -0.00820
Br228      Br  0.54612739  0.91859234  0.87945851    -0.00890
Br229      Br  0.45698517  0.07935708  0.77492243    -0.00850
Br230      Br  0.44995867  0.07821651  0.88033366    -0.00830
C231        C  0.95895847  0.19627451  0.50277866    -0.01960
C232        C  0.99552130  0.21939178  0.49140381     0.07720
C233        C  0.03194667  0.19689940  0.47612785    -0.02070
C234        C  0.03212902  0.15159966  0.47375620    -0.02070
C235        C  0.99692564  0.12878214  0.48893933     0.07850
C236        C  0.95998265  0.15128560  0.50214118    -0.02270
Br237      Br  0.90956055  0.12039216  0.51677869    -0.00820
Br238      Br  0.90644581  0.22602536  0.51790956    -0.00890
Br239      Br  0.08041154  0.12092254  0.44955744    -0.00850
Br240      Br  0.08230717  0.22773349  0.46072602    -0.00830
C241        C  0.99353295  0.41218591  0.43951775    -0.01960
C242        C  0.98677838  0.36820313  0.42891628     0.07720
C243        C  0.98279761  0.35667676  0.38480068    -0.02070
C244        C  0.99220555  0.38712241  0.35356284    -0.02070
C245        C  0.99305870  0.43159936  0.36518802     0.07850
C246        C  0.98709150  0.44286392  0.40883013    -0.02270
Br247      Br  0.96521424  0.49841998  0.42823516    -0.00820
Br248      Br  0.01962031  0.43243136  0.49242050    -0.00890
Br249      Br  0.00741465  0.36551297  0.29725174    -0.00850
Br250      Br  0.96050636  0.30193144  0.36543751    -0.00830
C251        C  0.02546653  0.47117693  0.19554694    -0.01960
C252        C  0.99651058  0.49763411  0.21881901     0.07720
C253        C  0.96683849  0.52286901  0.19683707    -0.02070
C254        C  0.96765401  0.52369546  0.15195234    -0.02070
C255        C  0.99684537  0.49731495  0.12842515     0.07850
C256        C  0.02479195  0.46990172  0.15061006    -0.02270
Br257      Br  0.06412578  0.43174291  0.12038605    -0.00820
Br258      Br  0.06844823  0.43886772  0.22529038    -0.00890
Br259      Br  0.92758942  0.56062405  0.12344367    -0.00850
Br260      Br  0.92413100  0.55547079  0.22817266    -0.00830
C261        C  0.99338817  0.63617985  0.39665480    -0.01960
C262        C  0.03049912  0.64371015  0.42089607     0.07720
C263        C  0.06869952  0.62212191  0.40957389    -0.02070
C264        C  0.06909351  0.59116212  0.37577246    -0.02070
C265        C  0.03117798  0.58137973  0.35347124     0.07850
C266        C  0.99359590  0.60500149  0.36328380    -0.02270
Br267      Br  0.94041142  0.59067210  0.33563695    -0.00820
Br268      Br  0.94068853  0.66474530  0.41247439    -0.00890
Br269      Br  0.12069379  0.55979968  0.36186403    -0.00850
Br270      Br  0.11961914  0.63292376  0.44252180    -0.00830
C271        C  0.04402539  0.80702012  0.52610326    -0.01960
C272        C  0.01213304  0.78149013  0.50666647     0.07720
C273        C  0.97562086  0.80122853  0.48961510    -0.02070
C274        C  0.97212673  0.84619358  0.48974459    -0.02070
C275        C  0.00470247  0.87188478  0.50763265     0.07850
C276        C  0.04006941  0.85211358  0.52711516    -0.02270
Br277      Br  0.08382447  0.88654214  0.55419768    -0.00820
Br278      Br  0.09384236  0.78016574  0.55007678    -0.00890
Br279      Br  0.92128079  0.87239881  0.46769733    -0.00850
Br280      Br  0.92932922  0.76673190  0.46776098    -0.00830
C281        C  0.03871186  0.59648838  0.63304400    -0.01960
C282        C  0.99902544  0.57646625  0.63829762     0.07720
C283        C  0.96336403  0.59018319  0.61465472    -0.02070
C284        C  0.96813031  0.62123367  0.58357185    -0.02070
C285        C  0.00831216  0.63938527  0.57664723     0.07850
C286        C  0.04321738  0.62814540  0.60238342    -0.02270
Br287      Br  0.09773818  0.65442364  0.59358805    -0.00820
Br288      Br  0.08769665  0.57822266  0.66518906    -0.00890
Br289      Br  0.92017449  0.63742795  0.54877557    -0.00850
Br290      Br  0.90805698  0.56561923  0.62417575    -0.00830
C291        C  0.01429795  0.36535831  0.59900476    -0.01960
C292        C  0.97451027  0.35247499  0.58213429     0.07720
C293        C  0.93666367  0.37068325  0.59904526    -0.02070
C294        C  0.93868227  0.40447262  0.62982964    -0.02070
C295        C  0.97854525  0.41981464  0.64373313     0.07850
C296        C  0.01624602  0.39904031  0.62973306    -0.02270
Br297      Br  0.07084480  0.41963686  0.64965818    -0.00820
Br298      Br  0.06662785  0.34067876  0.57642743    -0.00890
Br299      Br  0.88723184  0.43216247  0.65045138    -0.00850
Br300      Br  0.88238028  0.35100781  0.57777422    -0.00830
C301        C  0.97899915  0.53911195  0.84986095    -0.01960
C302        C  0.00088912  0.50588210  0.87105655     0.07720
C303        C  0.02174801  0.47324342  0.84609756    -0.02070
C304        C  0.02203012  0.47502655  0.80130863    -0.02070
C305        C  0.99618532  0.50521604  0.78045300     0.07850
C306        C  0.97382844  0.53664855  0.80519478    -0.02270
Br307      Br  0.93295527  0.57438177  0.77882402    -0.00820
Br308      Br  0.95525643  0.58860321  0.88054192    -0.00890
Br309      Br  0.06052856  0.43761268  0.76906551    -0.00850
Br310      Br  0.05099428  0.42558733  0.87181267    -0.00830
C311        C  0.19445873  0.51599433  0.04228726    -0.01960
C312        C  0.21763479  0.50895564  0.00423206     0.07720
C313        C  0.19602582  0.50490167  0.96496231    -0.02070
C314        C  0.15122745  0.50641583  0.96393508    -0.02070
C315        C  0.12790672  0.51108935  0.00219010     0.07850
C316        C  0.14962029  0.51750449  0.04121485    -0.02270
Br317      Br  0.11800829  0.52915949  0.09299642    -0.00820
Br318      Br  0.22435634  0.52304662  0.09582753    -0.00890
Br319      Br  0.12192389  0.50498491  0.90999054    -0.00850
Br320      Br  0.22796814  0.49704791  0.91270193    -0.00830
C321        C  0.39254084  0.36626756  0.97531830    -0.01960
C322        C  0.41835900  0.36054195  0.01153313     0.07720
C323        C  0.40867807  0.38291396  0.05014769    -0.02070
C324        C  0.37607913  0.41408763  0.05136208    -0.02070
C325        C  0.35294506  0.42277646  0.01405777     0.07940
C326        C  0.35973641  0.39738320  0.97661154    -0.02270
Br327      Br  0.32690995  0.40818359  0.92595095    -0.00820
Br328      Br  0.40468249  0.33439595  0.92291940    -0.00890
Br329      Br  0.36487209  0.44716892  0.10328608    -0.00850
Br330      Br  0.44162887  0.37230776  0.10081415    -0.00830
C331        C  0.51985123  0.15226844  0.97049157    -0.01960
C332        C  0.49795241  0.13019325  0.00216692     0.07720
C333        C  0.47636373  0.15345545  0.03500373    -0.02070
C334        C  0.47797243  0.19851787  0.03700941    -0.02070
C335        C  0.49848460  0.22074624  0.00441566     0.07850
C336        C  0.51884202  0.19736879  0.97076305    -0.02270
Br337      Br  0.54324855  0.22668609  0.92344267    -0.00820
Br338      Br  0.55006802  0.12088418  0.92561176    -0.00890
Br339      Br  0.45409623  0.22941087  0.08594478    -0.00850
Br340      Br  0.44554804  0.12377794  0.07825311    -0.00830
C341        C  0.62409414  0.41039592  0.04334945    -0.01960
C342        C  0.64060954  0.42248828  0.00383117     0.07720
C343        C  0.62681657  0.40175479  0.96578493    -0.02070
C344        C  0.59435104  0.37105017  0.96701107    -0.02070
C345        C  0.57594653  0.36088176  0.00634066     0.07850
C346        C  0.59188158  0.37944911  0.04461607    -0.02270
Br347      Br  0.56787694  0.36401698  0.09850463    -0.00820
Br348      Br  0.64390809  0.43828513  0.09540736    -0.00890
Br349      Br  0.57284749  0.34529039  0.91464350    -0.00850
Br350      Br  0.65047811  0.41774503  0.91188063    -0.00830
C351        C  0.84960049  0.50256147  0.96079582    -0.01960
C352        C  0.87256172  0.49231424  0.99775870     0.07720
C353        C  0.85058280  0.47999780  0.03447272    -0.02070
C354        C  0.80574928  0.48134626  0.03530040    -0.02070
C355        C  0.78283027  0.49361780  0.99886806     0.07850
C356        C  0.80483081  0.50334263  0.96131763    -0.02270
Br357      Br  0.77358280  0.51665847  0.91021293    -0.00820
Br358      Br  0.87940104  0.51250339  0.90856047    -0.00890
Br359      Br  0.77582456  0.46826143  0.08694032    -0.00850
Br360      Br  0.88181851  0.46094202  0.08346844    -0.00830
C361        C  0.63924089  0.60445030  0.03333667    -0.01960
C362        C  0.64765198  0.58002076  0.99568685     0.07720
C363        C  0.62817853  0.59120055  0.95706503    -0.02070
C364        C  0.59744750  0.62422476  0.95690574    -0.02070
C365        C  0.58503876  0.64490847  0.99556023     0.07850
C366        C  0.60755447  0.63667384  0.03338443    -0.02270
Br367      Br  0.59279982  0.66721660  0.08574457    -0.00820
Br368      Br  0.66865496  0.59119877  0.08540721    -0.00890
Br369      Br  0.57094378  0.64011602  0.90415250    -0.00850
Br370      Br  0.64152856  0.55915827  0.90505089    -0.00830
C371        C  0.39758884  0.64040570  0.03020692    -0.01960
C372        C  0.42723521  0.63915185  0.99630563     0.07720
C373        C  0.42121173  0.61000478  0.96142745    -0.02070
C374        C  0.38834868  0.57982563  0.96227957    -0.02070
C375        C  0.36081486  0.57890108  0.99768320     0.07850
C376        C  0.36421450  0.61047571  0.03069049    -0.02270
Br377      Br  0.32509113  0.61072331  0.07810951    -0.00820
Br378      Br  0.40448934  0.68055326  0.07780560    -0.00890
Br379      Br  0.38174358  0.53862748  0.91535355    -0.00850
Br380      Br  0.45813748  0.61091048  0.91230991    -0.00830
C381        C  0.51986757  0.85096363  0.03184051    -0.01960
C382        C  0.49796074  0.87259281  0.99952623     0.07720
C383        C  0.47657344  0.84888644  0.96706815    -0.02070
C384        C  0.47882631  0.80377147  0.96581853    -0.02070
C385        C  0.50006020  0.78206827  0.99863804     0.07850
C386        C  0.51954669  0.80592883  0.03225837    -0.02270
Br387      Br  0.54367427  0.77729686  0.08047869    -0.00820
Br388      Br  0.54945826  0.88285577  0.07650929    -0.00890
Br389      Br  0.45478665  0.77207495  0.91771503    -0.00850
Br390      Br  0.44546156  0.87803086  0.92319825    -0.00830
loop_ 
_geom_bond_atom_site_label_1 
_geom_bond_atom_site_label_2 
_geom_bond_distance 
_geom_bond_site_symmetry_2 
_ccdc_geom_bond_type 
C1            C2   1.407       .  A
C1            C6   1.408       .  A
C1          C385   1.484       .  S
C2            C3   1.403       .  A
C2            H7   1.084       .  S
C3            C4   1.402       .  A
C3          C372   1.486       .  S
C4            C5   1.400       .  A
C4            H8   1.085       .  S
C5            C6   1.399       .  A
C5          C365   1.477       .  S
C6            H9   1.084       .  S
C10          C11   1.406       .  A
C10          C15   1.406   1_556  A
C10         C355   1.477       .  S
C11          C12   1.400       .  A
C11          H16   1.084       .  S
C12          C13   1.399   1_556  A
C12         C362   1.475       .  S
C13          C14   1.398       .  A
C13          H17   1.085       .  S
C14          C15   1.400       .  A
C14         C342   1.474       .  S
C15          H18   1.084       .  S
C19          C20   1.408       .  A
C19          C24   1.407       .  A
C19         C335   1.484       .  S
C20          C21   1.401       .  A
C20          H25   1.084       .  S
C21          C22   1.399       .  A
C21         C345   1.476       .  S
C22          C23   1.400       .  A
C22          H26   1.085       .  S
C23          C24   1.400       .  A
C23         C322   1.478       .  S
C24          H27   1.084       .  S
C28          C29   1.406       .  A
C28          C33   1.406       .  A
C28         C312   1.476       .  S
C29          C30   1.402       .  A
C29          H34   1.084   1_554  S
C30          C31   1.398       .  A
C30         C375   1.480   1_554  S
C31          C32   1.397       .  A
C31          H35   1.085       .  S
C32          C33   1.401       .  A
C32         C325   1.477       .  S
C33          H36   1.084       .  S
C37          C38   1.409       .  A
C37          C42   1.411       .  A
C37         C305   1.492       .  S
C38          C39   1.398       .  A
C38          H43   1.083       .  S
C39          C40   1.397       .  A
C39         C295   1.474       .  S
C40          C41   1.399       .  A
C40          H44   1.085       .  S
C41          C42   1.403       .  A
C41         C282   1.482       .  S
C42          H45   1.083   1_655  S
C46          C47   1.406       .  A
C46          C51   1.409       .  A
C46         C272   1.483       .  S
C47          C48   1.401       .  A
C47          H52   1.084       .  S
C48          C49   1.399       .  A
C48         C285   1.476       .  S
C49          C50   1.399       .  A
C49          H53   1.085       .  S
C50          C51   1.404       .  A
C50         C262   1.481       .  S
C51          H54   1.083       .  S
C55          C56   1.411   1_455  A
C55          C60   1.405       .  A
C55         C252   1.484   1_455  S
C56          C57   1.413   1_655  A
C56          H61   1.079       .  S
C57          C58   1.409       .  A
C57         C245   1.511   1_455  S
C58          C59   1.396       .  A
C58          H62   1.082       .  S
C59          C60   1.398       .  A
C59         C265   1.484       .  S
C60          H63   1.083       .  S
C64          C65   1.403       .  A
C64          C69   1.412       .  A
C64         C232   1.485       .  S
C65          C66   1.394       .  A
C65          H70   1.084       .  S
C66          C67   1.396       .  A
C66         C292   1.477       .  S
C67          C68   1.406       .  A
C67          H71   1.082       .  S
C68          C69   1.416       .  A
C68         C242   1.512       .  S
C69          H72   1.077   1_655  S
C73          C74   1.409       .  A
C73          C78   1.408       .  A
C73         C225   1.484       .  S
C74          C75   1.402       .  A
C74          H79   1.084       .  S
C75          C76   1.399       .  A
C75         C202   1.480       .  S
C76          C77   1.398       .  A
C76          H80   1.085       .  S
C77          C78   1.401       .  A
C77         C215   1.476       .  S
C78          H81   1.084       .  S
C82          C83   1.413   1_545  A
C82          C87   1.411       .  A
C82         C195   1.497       .  S
C83          C84   1.403       .  A
C83          H88   1.083       .  S
C84          C85   1.397   1_565  A
C84         C205   1.478       .  S
C85          C86   1.396       .  A
C85          H89   1.085       .  S
C86          C87   1.400       .  A
C86         C185   1.476       .  S
C87          H90   1.083       .  S
C91          C92   1.409       .  A
C91          C96   1.408       .  A
C91         C175   1.485       .  S
C92          C93   1.404       .  A
C92          H97   1.084       .  S
C93          C94   1.398       .  A
C93         C165   1.480       .  S
C94          C95   1.397       .  A
C94          H98   1.085       .  S
C95          C96   1.400       .  A
C95         C182   1.475       .  S
C96          H99   1.084       .  S
C100        C101   1.406   1_545  A
C100        C105   1.407       .  A
C100        C152   1.479       .  S
C101        C102   1.399       .  A
C101        H106   1.084       .  S
C102        C103   1.398   1_565  A
C102        C212   1.474       .  S
C103        C104   1.399       .  A
C103        H107   1.085       .  S
C104        C105   1.402       .  A
C104        C162   1.478       .  S
C105        H108   1.084       .  S
O109        V117   1.895       .  S
O109        C119   1.263       .  A
O110        V117   1.898   1_655  S
O110        C120   1.263   1_545  A
O111        V117   1.903   1_565  S
O111        C121   1.264       .  A
O112        V117   1.905   1_655  S
O112        C122   1.266       .  A
O113        V118   1.902   1_445  S
O113        C122   1.263   1_455  A
O114        V118   1.903       .  S
O114        C121   1.265   1_655  A
O115        V118   1.905       .  S
O115        C120   1.266       .  A
O116        V118   1.900   1_455  S
O116        C119   1.265   1_565  A
V117        V118   2.083   1_445  T
C119        C155   1.478       .  S
C120        C192   1.500       .  S
C121        C275   1.481       .  S
C122        C235   1.478       .  S
O123        V131   1.899       .  S
O123        C133   1.264       .  A
O124        V131   1.899   1_566  S
O124        C134   1.264       .  A
O125        V131   1.897       .  S
O125        C135   1.264       .  A
O126        V131   1.897   1_565  S
O126        C136   1.264   1_554  A
O127        V132   1.899   1_566  S
O127        C136   1.264       .  A
O128        V132   1.898       .  S
O128        C135   1.264       .  A
O129        V132   1.900   1_556  S
O129        C134   1.264   1_545  A
O130        V132   1.900       .  S
O130        C133   1.264       .  A
V131        V132   2.088       .  T
C133        C172   1.476       .  S
C134        C222   1.476       .  S
C135        C332   1.475       .  S
C136        C382   1.475       .  S
O137        V145   1.900   1_655  S
O137        C147   1.262       .  A
O138        V145   1.905       .  S
O138        C148   1.265   1_556  A
O139        V145   1.900   1_554  S
O139        C149   1.264   1_455  A
O140        V145   1.898       .  S
O140        C150   1.264       .  A
O141        V146   1.900   1_456  S
O141        C150   1.264       .  A
O142        V146   1.900       .  S
O142        C149   1.265       .  A
O143        V146   1.902   1_455  S
O143        C148   1.263       .  A
O144        V146   1.904   1_556  S
O144        C147   1.265       .  A
V145        V146   2.084   1_456  T
C147        C352   1.474       .  S
C148        C315   1.476       .  S
C149        C255   1.488       .  S
C150        C302   1.494       .  S
C151        C152   1.409   1_565  A
C151        C156   1.407       .  A
C151       Br158   1.929       .  S
C152        C153   1.409       .  A
C153        C154   1.406       .  A
C153       Br160   1.931       .  S
C154        C155   1.414       .  A
C154       Br159   1.933       .  S
C155        C156   1.413   1_545  A
C156       Br157   1.933       .  S
C161        C162   1.408   1_565  A
C161        C166   1.407       .  A
C161       Br168   1.929       .  S
C162        C163   1.409       .  A
C163        C164   1.406       .  A
C163       Br170   1.930       .  S
C164        C165   1.410       .  A
C164       Br169   1.930       .  S
C165        C166   1.410   1_545  A
C166       Br167   1.926       .  S
C171        C172   1.410   1_565  A
C171        C176   1.407       .  A
C171       Br178   1.932       .  S
C172        C173   1.411       .  A
C173        C174   1.408       .  A
C173       Br180   1.932       .  S
C174        C175   1.412       .  A
C174       Br179   1.932       .  S
C175        C176   1.412   1_545  A
C176       Br177   1.928       .  S
C181        C182   1.407   1_565  A
C181        C186   1.405       .  A
C181       Br188   1.929       .  S
C182        C183   1.410       .  A
C183        C184   1.408       .  A
C183       Br190   1.928       .  S
C184        C185   1.407       .  A
C184       Br189   1.927       .  S
C185        C186   1.410   1_545  A
C186       Br187   1.930       .  S
C191        C192   1.423   1_545  A
C191        C196   1.410       .  A
C191       Br198   1.938       .  S
C192        C193   1.421       .  A
C193        C194   1.409       .  A
C193       Br200   1.935       .  S
C194        C195   1.414   1_565  A
C194       Br199   1.936       .  S
C195        C196   1.413       .  A
C196       Br197   1.934       .  S
C201        C202   1.409   1_545  A
C201        C206   1.408       .  A
C201       Br208   1.930       .  S
C202        C203   1.411       .  A
C203        C204   1.406       .  A
C203       Br210   1.930       .  S
C204        C205   1.408       .  A
C204       Br209   1.929       .  S
C205        C206   1.410   1_565  A
C206       Br207   1.928       .  S
C211        C212   1.408   1_545  A
C211        C216   1.406       .  A
C211       Br218   1.929       .  S
C212        C213   1.408       .  A
C213        C214   1.406       .  A
C213       Br220   1.929       .  S
C214        C215   1.409       .  A
C214       Br219   1.928       .  S
C215        C216   1.409   1_565  A
C216       Br217   1.928       .  S
C221        C222   1.411       .  A
C221        C226   1.408       .  A
C221       Br228   1.932       .  S
C222        C223   1.410   1_565  A
C223        C224   1.407       .  A
C223       Br230   1.932       .  S
C224        C225   1.412   1_545  A
C224       Br229   1.930       .  S
C225        C226   1.412       .  A
C226       Br227   1.932       .  S
C231        C232   1.414       .  A
C231        C236   1.403       .  A
C231       Br238   1.936       .  S
C232        C233   1.412   1_655  A
C233        C234   1.413       .  A
C233       Br240   1.928       .  S
C234        C235   1.412   1_455  A
C234       Br239   1.928       .  S
C235        C236   1.406       .  A
C236       Br237   1.925       .  S
C241        C242   1.419       .  A
C241        C246   1.392       .  A
C241       Br248   1.938   1_655  S
C242        C243   1.423       .  A
C243        C244   1.420       .  A
C243       Br250   1.931       .  S
C244        C245   1.424       .  A
C244       Br249   1.928   1_655  S
C245        C246   1.414       .  A
C246       Br247   1.938       .  S
C251        C252   1.410   1_455  A
C251        C256   1.408       .  A
C251       Br258   1.933       .  S
C252        C253   1.408       .  A
C253        C254   1.409       .  A
C253       Br260   1.926       .  S
C254        C255   1.417       .  A
C254       Br259   1.935       .  S
C255        C256   1.417   1_655  A
C256       Br257   1.934       .  S
C261        C262   1.407   1_655  A
C261        C266   1.405       .  A
C261       Br268   1.929       .  S
C262        C263   1.410       .  A
C263        C264   1.410       .  A
C263       Br270   1.928       .  S
C264        C265   1.410       .  A
C264       Br269   1.927       .  S
C265        C266   1.414   1_455  A
C266       Br267   1.929       .  S
C271        C272   1.410       .  A
C271        C276   1.410       .  A
C271       Br278   1.930       .  S
C272        C273   1.409   1_455  A
C273        C274   1.406       .  A
C273       Br280   1.928       .  S
C274        C275   1.409   1_655  A
C274       Br279   1.924       .  S
C275        C276   1.413       .  A
C276       Br277   1.930       .  S
C281        C282   1.411   1_455  A
C281        C286   1.409       .  A
C281       Br288   1.929       .  S
C282        C283   1.412       .  A
C283        C284   1.406       .  A
C283       Br290   1.932       .  S
C284        C285   1.407   1_655  A
C284       Br289   1.931       .  S
C285        C286   1.408       .  A
C286       Br287   1.929       .  S
C291        C292   1.412   1_455  A
C291        C296   1.404       .  A
C291       Br298   1.933       .  S
C292        C293   1.409       .  A
C293        C294   1.408       .  A
C293       Br300   1.927       .  S
C294        C295   1.407       .  A
C294       Br299   1.927       .  S
C295        C296   1.408   1_655  A
C296       Br297   1.932       .  S
C301        C302   1.421   1_655  A
C301        C306   1.409       .  A
C301       Br308   1.936       .  S
C302        C303   1.419       .  A
C303        C304   1.407       .  A
C303       Br310   1.937       .  S
C304        C305   1.413   1_455  A
C304       Br309   1.935       .  S
C305        C306   1.412       .  A
C306       Br307   1.936       .  S
C311        C312   1.408       .  A
C311        C316   1.408       .  A
C311       Br318   1.929       .  S
C312        C313   1.407   1_554  A
C313        C314   1.407       .  A
C313       Br320   1.930       .  S
C314        C315   1.409   1_556  A
C314       Br319   1.923       .  S
C315        C316   1.409       .  A
C316       Br317   1.927       .  S
C321        C322   1.409   1_556  A
C321        C326   1.408       .  A
C321       Br328   1.929       .  S
C322        C323   1.410       .  A
C323        C324   1.405       .  A
C323       Br330   1.930       .  S
C324        C325   1.408       .  A
C324       Br329   1.930       .  S
C325        C326   1.410   1_554  A
C326       Br327   1.929       .  S
C331        C332   1.410   1_556  A
C331        C336   1.407       .  A
C331       Br338   1.933       .  S
C332        C333   1.411       .  A
C333        C334   1.407       .  A
C333       Br340   1.933       .  S
C334        C335   1.413       .  A
C334       Br339   1.933       .  S
C335        C336   1.413   1_554  A
C336       Br337   1.931       .  S
C341        C342   1.408       .  A
C341        C346   1.406       .  A
C341       Br348   1.929       .  S
C342        C343   1.408   1_554  A
C343        C344   1.407       .  A
C343       Br350   1.930       .  S
C344        C345   1.409   1_556  A
C344       Br349   1.928       .  S
C345        C346   1.408       .  A
C346       Br347   1.928       .  S
C351        C352   1.408       .  A
C351        C356   1.405       .  A
C351       Br358   1.923       .  S
C352        C353   1.409   1_556  A
C353        C354   1.408       .  A
C353       Br360   1.928       .  S
C354        C355   1.411   1_554  A
C354       Br359   1.930       .  S
C355        C356   1.409       .  A
C356       Br357   1.932       .  S
C361        C362   1.408   1_554  A
C361        C366   1.407       .  A
C361       Br368   1.929       .  S
C362        C363   1.408       .  A
C363        C364   1.405       .  A
C363       Br370   1.929       .  S
C364        C365   1.408       .  A
C364       Br369   1.927       .  S
C365        C366   1.409   1_556  A
C366       Br367   1.926       .  S
C371        C372   1.413   1_554  A
C371        C376   1.410       .  A
C371       Br378   1.930       .  S
C372        C373   1.413       .  A
C373        C374   1.404       .  A
C373       Br380   1.930       .  S
C374        C375   1.409       .  A
C374       Br379   1.934       .  S
C375        C376   1.410   1_556  A
C376       Br377   1.930       .  S
C381        C382   1.410   1_554  A
C381        C386   1.406       .  A
C381       Br388   1.933       .  S
C382        C383   1.411       .  A
C383        C384   1.408       .  A
C383       Br390   1.932       .  S
C384        C385   1.413       .  A
C384       Br389   1.932       .  S
C385        C386   1.412   1_556  A
C386       Br387   1.931       .  S
