geometry optimzed in LAMMPS
_audit_creation_date              2020-11-30 
_audit_creation_method            'lammps2cif' 
_symmetry_space_group_name_H-M    'P1' 
_symmetry_Int_Tables_number       1 
_symmetry_cell_setting            triclinic 
loop_ 
_symmetry_equiv_pos_as_xyz 
  x,y,z 
_cell_length_a                    25.45612042 
_cell_length_b                    25.45519336212296 
_cell_length_c                    37.71957032597036 
_cell_angle_alpha                 92.26933625749585 
_cell_angle_beta                  92.21221905305178 
_cell_angle_gamma                 121.77815513466582 
loop_ 
_atom_site_label 
_atom_site_type_symbol 
_atom_site_fract_x 
_atom_site_fract_y 
_atom_site_fract_z 
_atom_site_charge 
C1          C  0.18769734  0.98267611  0.30524396     0.80300
N2          N  0.21739698  0.31797624  0.27585956    -0.78000
C3          C  0.26327688  0.30508856  0.28380664     0.82800
N4          N  0.26912280  0.29059359  0.31753001    -0.77900
C5          C  0.24541190  0.96289878  0.34769339     0.82900
N6          N  0.19953799  0.97243397  0.33898940    -0.79600
C7          C  0.14620105  0.00847077  0.30382954     0.80300
N8          N  0.14890749  0.03774383  0.33527333    -0.78000
C9          C  0.10916187  0.05552857  0.34220915     0.82800
N10         N  0.06575630  0.04556276  0.31668202    -0.77900
C11         C  0.05661864  0.01195556  0.28566194     0.82900
N12         N  0.09731606  0.99217427  0.27911902    -0.79600
O13         O  0.31840415  0.05666755  0.47091774    -0.71700
O14         O  0.07711265  0.09177093  0.39003446    -0.71900
O15         O  0.29131484  0.03246590  0.39918566    -0.71700
O16         O  0.10614176  0.11490354  0.46132597    -0.71700
O17         O  0.07896839  0.35518077  0.46718194    -0.71700
O18         O  0.28481345  0.27875132  0.39350850    -0.71700
O19         O  0.07316860  0.34230149  0.39508461    -0.71700
O20         O  0.29048003  0.29403363  0.46662022    -0.71800
V21         V  0.03119761  0.07238443  0.43079712     1.35200
V22         V  0.01511391  0.31903165  0.43070509     1.35200
C23         C  0.29841284  0.00727564  0.48606288     0.77600
C24         C  0.09264724  0.05507669  0.37877444     0.77600
C25         C  0.27401451  0.97957745  0.38442080     0.77500
C26         C  0.12420679  0.08270666  0.47612431     0.77500
C27         C  0.23058719  0.24298894  0.71558587     0.80300
N28         N  0.23799476  0.22981723  0.68165058    -0.78000
C29         C  0.28420035  0.22213551  0.67287827     0.82800
N30         N  0.32256929  0.22339218  0.69904779    -0.77900
C31         C  0.32022653  0.23891684  0.73358463     0.82900
N32         N  0.27422178  0.25073236  0.74189765    -0.79600
O33         O  0.10223700  0.31213720  0.54689877    -0.71700
O34         O  0.00047553  0.22224665  0.62080136    -0.71900
O35         O  0.98080772  0.24669874  0.55426850    -0.71700
O36         O  0.12024257  0.28696104  0.61792400    -0.71300
O37         O  0.11368675  0.36186649  0.64234267    -0.71700
O38         O  0.00445717  0.34099014  0.56735026    -0.71700
O39         O  0.99256407  0.30179118  0.63355631    -0.71700
O40         O  0.12212823  0.39813516  0.57413579    -0.71800
V41         V  0.05216907  0.26859969  0.58477600     1.35200
V42         V  0.05823953  0.34929049  0.60397377     1.35200
C43         C  0.12849451  0.37061824  0.54753415     0.77600
C44         C  0.31257283  0.24761502  0.63987762     0.77600
C45         C  0.30328358  0.28935843  0.55069607     0.77500
C46         C  0.13117577  0.32430960  0.64482157     0.77500
C47         C  0.18897803  0.26903298  0.71692979     0.80300
N48         N  0.14631042  0.25868957  0.74175120    -0.78000
C49         C  0.10487218  0.27834488  0.73646402     0.82800
N50         N  0.10869279  0.30813500  0.70658122    -0.77900
C51         C  0.14687939  0.31393659  0.68085895     0.82900
N52         N  0.18573244  0.29388071  0.68617992    -0.79600
N53         N  0.25177969  0.32439840  0.51397214    -0.03300
C54         C  0.23614875  0.36096692  0.53232919    -0.00800
C55         C  0.21711510  0.33773581  0.56478374    -0.23600
C56         C  0.21410130  0.28255809  0.56495299    -0.23900
C57         C  0.24608505  0.28142583  0.53634233    -0.00900
H58         H  0.20810468  0.36004857  0.58656786     0.12900
H59         H  0.20782534  0.25798762  0.58879737     0.13000
C60         C  0.05156913  0.12250055  0.79815876     0.80300
N61         N  0.05733163  0.16529549  0.77481483    -0.78000
C62         C  0.03139450  0.20064232  0.78113500     0.82800
N63         N  0.00054538  0.19150719  0.81159447    -0.77900
C64         C  0.99857601  0.15247093  0.83613460     0.82900
N65         N  0.02423236  0.11898927  0.82894139    -0.79600
C66         C  0.04611482  0.25864749  0.75878217    -0.02400
C67         C  0.09003629  0.09380918  0.79893370     0.80300
N68         N  0.11865717  0.10111470  0.83143685    -0.78000
C69         C  0.13724174  0.06310540  0.84194034     0.82800
N70         N  0.13106978  0.01853280  0.81789400    -0.77900
C71         C  0.10159135  0.00785207  0.78483450     0.82900
N72         N  0.07917185  0.04514512  0.77596009    -0.79600
C73         C  0.30820955  0.17147214  0.21874999     0.80300
N74         N  0.28855906  0.17382555  0.18523934    -0.78000
C75         C  0.27171593  0.21392024  0.17719523     0.82800
N76         N  0.27388595  0.25315775  0.20305858    -0.77900
C77         C  0.96556455  0.25846300  0.23634174     0.82900
N78         N  0.31686529  0.21662795  0.24446679    -0.79600
O79         O  0.03061103  0.20026431  0.96863472    -0.71700
O80         O  0.08259600  0.30325918  0.89362804    -0.71900
O81         O  0.07267684  0.32041363  0.96200128    -0.71700
O82         O  0.03827869  0.18516676  0.89677307    -0.71700
O83         O  0.94816854  0.17121011  0.88262823    -0.71700
O84         O  0.05698693  0.03661262  0.96018078    -0.71700
O85         O  0.99098949  0.29026576  0.88731286    -0.71700
O86         O  0.93476630  0.16934988  0.95699913    -0.71800
V87         V  0.05399793  0.25078730  0.93061324     1.35200
V88         V  0.96327280  0.22873525  0.92126693     1.35200
C89         C  0.97643107  0.17198207  0.97806591     0.77600
C90         C  0.12626610  0.04644957  0.87919257     0.77600
C91         C  0.10902408  0.06505446  0.97729067     0.77500
C92         C  0.99244246  0.16563182  0.87403025     0.77500
C93         C  0.33432561  0.12988657  0.21991000     0.80300
N94         N  0.32549164  0.08880885  0.24549066    -0.78000
C95         C  0.34290602  0.04581656  0.23951007     0.82800
N96         N  0.36774980  0.04535983  0.20836743    -0.77900
C97         C  0.37023973  0.08047731  0.18190037     0.82900
N98         N  0.35349840  0.12197226  0.18794691    -0.79600
O99         O  0.32119081  0.02382547  0.05255451    -0.71700
O100        O  0.23964122  0.24871600  0.12966438    -0.71900
O101        O  0.31720614  0.03845272  0.12506850    -0.71700
O102        O  0.22739696  0.21747891  0.05981533    -0.71700
O103        O  0.99009603  0.24976048  0.05205789    -0.71700
O104        O  0.06541858  0.03407783  0.13744181    -0.71700
O105        O  0.99061497  0.24796921  0.12428014    -0.71700
O106        O  0.07734813  0.03570045  0.06601781    -0.71800
V107        V  0.25871069  0.29320578  0.08871039     1.35200
V108        V  0.01373230  0.30857707  0.08980893     1.35200
C109        C  0.04478311  0.04978117  0.04742297     0.77600
C110        C  0.27644565  0.23366907  0.14119157     0.77600
C111        C  0.36458796  0.05403222  0.14558186     0.77500
C112        C  0.26719039  0.20881413  0.04603403     0.77500
N113        N  0.96474756  0.14830020  0.01308677    -0.03300
C114        C  0.00396177  0.14032458  0.03482491    -0.00800
C115        C  0.97953755  0.12345511  0.06720122    -0.23600
C116        C  0.25738057  0.12044375  0.06545457    -0.23900
C117        C  0.92273554  0.14789177  0.03465531    -0.00900
H118        H  0.00300366  0.12056393  0.09067703     0.12900
H119        H  0.23292724  0.11801544  0.08885413     0.13000
N120        N  0.07450320  0.10158959  0.02594596    -0.03300
C121        C  0.06449226  0.14839871  0.02604631    -0.00800
C122        C  0.11211243  0.19708776  0.00977263    -0.23600
C123        C  0.14443875  0.17403842  0.99374511    -0.23900
C124        C  0.11941631  0.11408974  0.00363821    -0.00900
H125        H  0.11973590  0.24273632  0.00706690     0.12900
H126        H  0.17752317  0.19625839  0.97389924     0.13000
C127        C  0.99450353  0.99071645  0.26311477    -0.02400
N128        N  0.17263812  0.40629421  0.52227035    -0.03300
C129        C  0.22696438  0.41000959  0.51898711    -0.00800
C130        C  0.27957035  0.12910815  0.49773180    -0.23600
C131        C  0.23902626  0.14308817  0.48168134    -0.23900
C132        C  0.18343478  0.10920788  0.49727518    -0.00900
H133        H  0.32697682  0.14792573  0.49139824     0.12900
H134        H  0.24713422  0.16891644  0.45830101     0.13000
C135        C  0.17822232  0.31396791  0.30156779     0.80300
N136        N  0.21253903  0.64998680  0.27888816    -0.78000
C137        C  0.25801269  0.63670887  0.28697432     0.82800
N138        N  0.26185076  0.61964325  0.32030992    -0.77900
C139        C  0.23433887  0.29157804  0.34350209     0.82900
N140        N  0.18956636  0.30279901  0.33508126    -0.79600
C141        C  0.13687150  0.34023822  0.30052054     0.80300
N142        N  0.13849018  0.36822426  0.33230103    -0.78000
C143        C  0.09810978  0.38535265  0.33932741     0.82800
N144        N  0.05463465  0.37528704  0.31368738    -0.77900
C145        C  0.04698744  0.34342338  0.28217172     0.82900
N146        N  0.08858279  0.32476793  0.27559139    -0.79600
O147        O  0.30320753  0.38491790  0.46690592    -0.71700
O148        O  0.06467238  0.42159555  0.38669382    -0.71900
O149        O  0.27859258  0.36071305  0.39511979    -0.71700
O150        O  0.09172031  0.44494345  0.45851901    -0.71700
O151        O  0.07031725  0.68117885  0.46833043    -0.71700
O152        O  0.27323544  0.60395670  0.39661187    -0.71700
O153        O  0.06153367  0.66687522  0.39673291    -0.71700
O154        O  0.28237425  0.62044504  0.46998473    -0.71800
V155        V  0.01765512  0.40164340  0.42719579     1.35200
V156        V  0.00491648  0.64455632  0.43299304     1.35200
C157        C  0.28147940  0.33429636  0.48096795     0.77600
C158        C  0.08214475  0.38604535  0.37612024     0.77600
C159        C  0.26325550  0.30860322  0.37999989     0.77500
C160        C  0.10875907  0.41286984  0.47451619     0.77500
C161        C  0.23946117  0.58534820  0.72066721     0.80300
N162        N  0.24172827  0.56455504  0.68759047    -0.78000
C163        C  0.28706367  0.55594173  0.67859900     0.82800
N164        N  0.32839332  0.56185104  0.70429782    -0.77900
C165        C  0.33111650  0.58496104  0.73787528     0.82900
N166        N  0.28670929  0.59898044  0.74610392    -0.79600
O167        O  0.09525898  0.63934544  0.54910946    -0.71700
O168        O  0.99683805  0.55256013  0.62461215    -0.71900
O169        O  0.97472050  0.57611114  0.55810761    -0.71700
O170        O  0.11620450  0.61520644  0.62004574    -0.71300
O171        O  0.11574797  0.69446291  0.64309822    -0.71700
O172        O  0.99701988  0.66948476  0.57285445    -0.71700
O173        O  0.99429605  0.63468780  0.63931555    -0.71700
O174        O  0.11471571  0.72632605  0.57472413    -0.71800
V175        V  0.04694985  0.59755490  0.58781083     1.35200
V176        V  0.05537014  0.67958736  0.60707959     1.35200
C177        C  0.12038844  0.69755913  0.54860602     0.77600
C178        C  0.31291072  0.57994335  0.64506389     0.77600
C179        C  0.29635042  0.61832018  0.55550350     0.77500
C180        C  0.13180963  0.65576951  0.64590574     0.77500
C181        C  0.19763812  0.61062067  0.72048133     0.80300
N182        N  0.15536220  0.60060914  0.74538494    -0.78000
C183        C  0.11255386  0.61769959  0.73890238     0.82800
N184        N  0.11402619  0.64426282  0.70810432    -0.77900
C185        C  0.15078718  0.64851970  0.68211448     0.82900
N186        N  0.19180182  0.63122430  0.68838850    -0.79600
N187        N  0.24439125  0.65192148  0.51726503    -0.03300
C188        C  0.22886965  0.68927699  0.53468071    -0.00800
C189        C  0.21069110  0.66816853  0.56758672    -0.23600
C190        C  0.20751383  0.61300331  0.56892823    -0.23900
C191        C  0.23920239  0.61026523  0.54059780    -0.00900
H192        H  0.20207061  0.69182201  0.58870803     0.12900
H193        H  0.20157397  0.58982879  0.59331683     0.13000
C194        C  0.03412431  0.45290151  0.80215399     0.80300
N195        N  0.04893690  0.49715796  0.77749492    -0.78000
C196        C  0.03745753  0.54453697  0.78455292     0.82800
N197        N  0.01235144  0.54568288  0.81548352    -0.77900
C198        C  0.00357936  0.50676795  0.84090973     0.82900
N199        N  0.01463744  0.46145869  0.83395217    -0.79600
C200        C  0.05712183  0.60232867  0.76215937    -0.02400
C201        C  0.04990655  0.40249636  0.80294857     0.80300
N202        N  0.05306066  0.38777023  0.83679492    -0.78000
C203        C  0.06309176  0.34304457  0.84452982     0.82800
N204        N  0.07006999  0.31080309  0.81838786    -0.77900
C205        C  0.06012416  0.31649064  0.78385977     0.82900
N206        N  0.04980077  0.36390239  0.77539910    -0.79600
C207        C  0.29502399  0.50278257  0.21794631     0.80300
N208        N  0.27814694  0.51033940  0.18473066    -0.78000
C209        C  0.26653058  0.55480292  0.17785897     0.82800
N210        N  0.26978192  0.59221124  0.20505722    -0.77900
C211        C  0.95805646  0.59134635  0.23828190     0.82900
N212        N  0.30530581  0.54624040  0.24498881    -0.79600
O213        O  0.04206320  0.55620368  0.97406106    -0.71700
O214        O  0.12358382  0.65299365  0.89620568    -0.71900
O215        O  0.12244589  0.67727046  0.96703274    -0.71700
O216        O  0.04542253  0.53391616  0.90134792    -0.71700
O217        O  0.97930237  0.55876156  0.88419082    -0.71700
O218        O  0.97415874  0.28591797  0.95744645    -0.71700
O219        O  0.05525694  0.67959848  0.89501868    -0.71700
O220        O  0.95889288  0.55341051  0.95482827    -0.71800
V221        V  0.08227581  0.60464922  0.93494757     1.35200
V222        V  0.00801479  0.61540474  0.92480467     1.35200
C223        C  0.98580288  0.53876736  0.97745752     0.77600
C224        C  0.04591263  0.31433326  0.87766645     0.77600
C225        C  0.02815348  0.32721419  0.96868319     0.77500
C226        C  0.00585743  0.52961923  0.87784176     0.77500
C227        C  0.31808780  0.45848037  0.21734928     0.80300
N228        N  0.31407506  0.41886783  0.24298358    -0.78000
C229        C  0.32943166  0.37454994  0.23498735     0.82800
N230        N  0.34739493  0.37192362  0.20172410    -0.77900
C231        C  0.34664898  0.40728115  0.17606236     0.82900
N232        N  0.33223340  0.44947331  0.18425077    -0.79600
O233        O  0.27337721  0.33642577  0.04736876    -0.71700
O234        O  0.25751088  0.60969381  0.13094913    -0.71900
O235        O  0.28933927  0.36632269  0.11981952    -0.71700
O236        O  0.25360531  0.59206714  0.05993945    -0.71700
O237        O  0.00641088  0.59354180  0.06010798    -0.71700
O238        O  0.04199073  0.36847195  0.12825855    -0.71700
O239        O  0.99831061  0.59124420  0.13061648    -0.71700
O240        O  0.03724130  0.36816350  0.05502304    -0.71800
V241        V  0.29487808  0.66228962  0.09338747     1.35200
V242        V  0.03846351  0.65414894  0.09844531     1.35200
C243        C  0.99349583  0.36663391  0.03674024     0.77600
C244        C  0.28312220  0.58291032  0.14379688     0.77600
C245        C  0.33914917  0.38407588  0.13885714     0.77500
C246        C  0.28383499  0.56893004  0.04892927     0.77500
N247        N  0.94989945  0.49751369  0.00352376    -0.03300
C248        C  0.93570984  0.43900267  0.00538905    -0.00800
C249        C  0.89163182  0.41015511  0.02995885    -0.23600
C250        C  0.21668330  0.45496921  0.04535941    -0.23900
C251        C  0.92103006  0.50885790  0.02908407    -0.00900
H252        H  0.86759342  0.36253553  0.03652851     0.12900
H253        H  0.19087450  0.45020601  0.06842586     0.13000
N254        N  0.00273530  0.39292143  0.00287182    -0.03300
C255        C  0.97216107  0.41749403  0.98749310    -0.00800
C256        C  0.98778747  0.42938768  0.95299581    -0.23600
C257        C  0.03103184  0.41432411  0.94734210    -0.23900
C258        C  0.03530714  0.38662801  0.97724924    -0.00900
H259        H  0.96755289  0.44477848  0.93352398     0.12900
H260        H  0.04657920  0.41130962  0.92144692     0.13000
C261        C  0.98451184  0.32014854  0.25933425    -0.02400
N262        N  0.16377977  0.73223866  0.52295966    -0.03300
C263        C  0.21841243  0.73669769  0.51999567    -0.00800
C264        C  0.26129000  0.45486180  0.49581008    -0.23600
C265        C  0.22262972  0.47223569  0.48114796    -0.23900
C266        C  0.16695688  0.43928570  0.49672971    -0.00900
H267        H  0.30821800  0.47248005  0.48908734     0.12900
H268        H  0.23137094  0.49877029  0.45799885     0.13000
C269        C  0.17164238  0.64340666  0.30413352     0.80300
N270        N  0.22729733  0.98762856  0.27965793    -0.78000
C271        C  0.27431307  0.97674947  0.28795446     0.82800
N272        N  0.28081534  0.96307551  0.32181022    -0.77900
C273        C  0.22537244  0.61822341  0.34586542     0.82900
N274        N  0.18078354  0.62947688  0.33728472    -0.79600
C275        C  0.13051773  0.66949377  0.30353613     0.80300
N276        N  0.13208006  0.69726951  0.33548565    -0.78000
C277        C  0.09124021  0.71384761  0.34257698     0.82800
N278        N  0.04783306  0.70331689  0.31706886    -0.77900
C279        C  0.03967207  0.67039582  0.28604010     0.82900
N280        N  0.08158231  0.65269310  0.27896854    -0.79600
O281        O  0.29232391  0.70999559  0.46889916    -0.71700
O282        O  0.05619420  0.74838132  0.38976258    -0.71900
O283        O  0.26945433  0.68729082  0.39713439    -0.71700
O284        O  0.08090546  0.77052794  0.46127009    -0.71700
O285        O  0.09389228  0.02498664  0.46879334    -0.71700
O286        O  0.29401675  0.94856058  0.39825850    -0.71700
O287        O  0.08191531  0.00993034  0.39692948    -0.71700
O288        O  0.30606551  0.96603504  0.47182103    -0.71800
V289        V  0.00763943  0.72742852  0.42960539     1.35200
V290        V  0.02708843  0.98884428  0.43406160     1.35200
C291        C  0.27272077  0.66046885  0.48389192     0.77600
C292        C  0.07321786  0.71257396  0.37890904     0.77600
C293        C  0.25310254  0.63461958  0.38253255     0.77500
C294        C  0.09933862  0.73871841  0.47609570     0.77500
C295        C  0.26240514  0.92283076  0.72035309     0.80300
N296        N  0.26689692  0.90471089  0.68701914    -0.78000
C297        C  0.31366021  0.89816210  0.67819985     0.82800
N298        N  0.35475622  0.90395933  0.70403693    -0.77900
C299        C  0.35503433  0.92392534  0.73795516     0.82900
N300        N  0.30875118  0.93541000  0.74613179    -0.79600
O301        O  0.12282314  0.98503830  0.54945473    -0.71700
O302        O  0.02367005  0.89671359  0.62419350    -0.71900
O303        O  0.00202391  0.92314190  0.55862298    -0.71700
O304        O  0.14295225  0.95843295  0.61998546    -0.71300
O305        O  0.14414632  0.03810261  0.64384245    -0.71700
O306        O  0.02603403  0.01665067  0.57466963    -0.71700
O307        O  0.02286573  0.97927561  0.64045149    -0.71700
O308        O  0.14306701  0.07177088  0.57587454    -0.71800
V309        V  0.07417548  0.94262359  0.58788940     1.35200
V310        V  0.08396998  0.02476762  0.60827336     1.35200
C311        C  0.14772792  0.04323333  0.54922167     0.77600
C312        C  0.34032702  0.92384410  0.64518085     0.77600
C313        C  0.32427087  0.96595902  0.55716267     0.77500
C314        C  0.15879795  0.99836364  0.64627076     0.77500
C315        C  0.22067763  0.94856920  0.72028070     0.80300
N316        N  0.17937733  0.94068304  0.74550202    -0.78000
C317        C  0.13840552  0.96043541  0.73941734     0.82800
N318        N  0.14088563  0.98747743  0.70863724    -0.77900
C319        C  0.17661338  0.98972303  0.68240228     0.82900
N320        N  0.21558017  0.96985984  0.68834467    -0.79600
N321        N  0.27198474  0.00042949  0.51992742    -0.03300
C322        C  0.25819720  0.03927452  0.53722288    -0.00800
C323        C  0.24122316  0.01987013  0.57059859    -0.23600
C324        C  0.23785150  0.96463199  0.57251503    -0.23900
C325        C  0.26720692  0.95947845  0.54358539    -0.00900
H326        H  0.23241588  0.04398204  0.59142917     0.12900
H327        H  0.23286128  0.94244874  0.59719075     0.13000
C328        C  0.07121119  0.80667375  0.80769339     0.80300
N329        N  0.07791237  0.84493732  0.78080344    -0.78000
C330        C  0.06688451  0.89246164  0.78714859     0.82800
N331        N  0.04837745  0.89871758  0.81924817    -0.77900
C332        C  0.04684903  0.86552893  0.84635387     0.82900
N333        N  0.05945891  0.82073893  0.84070645    -0.79600
C334        C  0.08237754  0.94576623  0.76241398    -0.02400
C335        C  0.08832016  0.75777353  0.80699112     0.80300
N336        N  0.10901949  0.75238937  0.83950301    -0.78000
C337        C  0.11651166  0.70533719  0.84668554     0.82800
N338        N  0.10502450  0.66282709  0.82013833    -0.77900
C339        C  0.08039754  0.66249080  0.78740472     0.82900
N340        N  0.07093392  0.71057787  0.78070336    -0.79600
C341        C  0.30647509  0.83788535  0.22315601     0.80300
N342        N  0.28505805  0.83845798  0.18982492    -0.78000
C343        C  0.27345099  0.88189190  0.18053380     0.82800
N344        N  0.28189686  0.92570114  0.20560139    -0.77900
C345        C  0.97259948  0.92973839  0.23925872     0.82900
N346        N  0.31962532  0.88548816  0.24788193    -0.79600
O347        O  0.08660655  0.92665964  0.97431619    -0.71700
O348        O  0.15904309  0.03243995  0.89781441    -0.71900
O349        O  0.14854159  0.05103100  0.96991342    -0.71700
O350        O  0.09836499  0.91235814  0.90306657    -0.71700
O351        O  0.01548357  0.91280728  0.88772994    -0.71700
O352        O  0.03415057  0.67162850  0.96416428    -0.71700
O353        O  0.07516835  0.03450476  0.89040562    -0.71700
O354        O  0.99823322  0.91493481  0.95759665    -0.71800
V355        V  0.12192516  0.98088193  0.93650617     1.35200
V356        V  0.03835748  0.97505230  0.92447982     1.35200
C357        C  0.02879461  0.90009962  0.97738881     0.77600
C358        C  0.10141458  0.68205860  0.88198246     0.77600
C359        C  0.08935817  0.69792732  0.97691409     0.77500
C360        C  0.05118135  0.89366690  0.88178747     0.77500
C361        C  0.33390024  0.79845030  0.22460831     0.80300
N362        N  0.31669984  0.75138031  0.24702687    -0.78000
C363        C  0.33240635  0.70771809  0.24028393     0.82800
N364        N  0.36316701  0.71156642  0.21060095    -0.77900
C365        C  0.37586689  0.75479557  0.18689918     0.82900
N366        N  0.36134116  0.79761815  0.19448148    -0.79600
O367        O  0.32983315  0.71523697  0.05588383    -0.71700
O368        O  0.25301528  0.91823699  0.12793209    -0.71900
O369        O  0.33188375  0.73060702  0.12788632    -0.71700
O370        O  0.25693673  0.90182307  0.05588714    -0.71700
O371        O  0.01505169  0.91434498  0.06118909    -0.71700
O372        O  0.07177469  0.71276223  0.13896067    -0.71700
O373        O  0.00177687  0.91222875  0.13180987    -0.71700
O374        O  0.08069720  0.71537241  0.06494925    -0.71800
V375        V  0.28857916  0.97073137  0.09022538     1.35200
V376        V  0.03823622  0.97381849  0.09871844     1.35200
C377        C  0.04941029  0.73116832  0.04625142     0.77600
C378        C  0.28484531  0.90084631  0.14416423     0.77600
C379        C  0.37487497  0.73659962  0.14899909     0.77500
C380        C  0.29491580  0.88774750  0.04560542     0.77500
N381        N  0.99498654  0.84863996  0.99899957    -0.03300
C382        C  0.99557026  0.79615614  0.99916782    -0.00800
C383        C  0.94068984  0.75008028  0.01159794    -0.23600
C384        C  0.24525067  0.77850884  0.02532668    -0.23900
C385        C  0.94754515  0.83996497  0.01802109    -0.00900
H386        H  0.92408450  0.70136728  0.01219607     0.12900
H387        H  0.20725134  0.75822624  0.04250190     0.13000
N388        N  0.07289366  0.76423858  0.01432616    -0.03300
C389        C  0.05155761  0.79342427  0.99407608    -0.00800
C390        C  0.08761493  0.81706815  0.96576612    -0.23600
C391        C  0.13095832  0.80075228  0.96794477    -0.23900
C392        C  0.11351438  0.75930421  0.99425029    -0.00900
H393        H  0.07798799  0.83556974  0.94326415     0.12900
H394        H  0.15788845  0.80286604  0.94583928     0.13000
C395        C  0.97943481  0.65069683  0.26289837    -0.02400
N396        N  0.19047357  0.07813709  0.52341116    -0.03300
C397        C  0.24631863  0.08506173  0.52155303    -0.00800
C398        C  0.25243620  0.78159858  0.49674495    -0.23600
C399        C  0.21341729  0.79865881  0.48209531    -0.23900
C400        C  0.15784570  0.76536898  0.49775944    -0.00900
H401        H  0.29953176  0.79964146  0.49009824     0.12900
H402        H  0.22219582  0.82602897  0.45931381     0.13000
C403        C  0.52102443  0.98267475  0.30523860     0.80300
N404        N  0.55072713  0.31798430  0.27586453    -0.78000
C405        C  0.59662381  0.30512771  0.28381406     0.82800
N406        N  0.60245268  0.29059571  0.31752977    -0.77900
C407        C  0.57882346  0.96305879  0.34772184     0.82900
N408        N  0.53289996  0.97251138  0.33899856    -0.79600
C409        C  0.47949551  0.00843063  0.30379873     0.80300
N410        N  0.48221735  0.03775117  0.33522537    -0.78000
C411        C  0.44245345  0.05551094  0.34215546     0.82800
N412        N  0.39901787  0.04548683  0.31663451    -0.77900
C413        C  0.38987774  0.01185144  0.28562649     0.82900
N414        N  0.43058737  0.99207971  0.27909290    -0.79600
O415        O  0.65184651  0.05685398  0.47095423    -0.71700
O416        O  0.41039458  0.09173338  0.38998105    -0.71900
O417        O  0.62475644  0.03265112  0.39921243    -0.71700
O418        O  0.43940814  0.11487903  0.46127342    -0.71700
O419        O  0.41226109  0.35505866  0.46714398    -0.71700
O420        O  0.61809464  0.27867158  0.39349616    -0.71700
O421        O  0.40635472  0.34213081  0.39504588    -0.71700
O422        O  0.62373616  0.29389978  0.46660811    -0.71800
V423        V  0.36447431  0.07231659  0.43074059     1.35200
V424        V  0.34835795  0.31893609  0.43069485     1.35200
C425        C  0.63180329  0.00745185  0.48609742     0.77600
C426        C  0.42595123  0.05505863  0.37871980     0.77600
C427        C  0.60741052  0.97974389  0.38445474     0.77500
C428        C  0.45750995  0.08271425  0.47607397     0.77500
C429        C  0.56387958  0.24286365  0.71559241     0.80300
N430        N  0.57129257  0.22967666  0.68166025    -0.78000
C431        C  0.61753709  0.22205268  0.67289205     0.82800
N432        N  0.65594024  0.22337857  0.69906447    -0.77900
C433        C  0.65358819  0.23891516  0.73359727     0.82900
N434        N  0.60754444  0.25067600  0.74190424    -0.79600
O435        O  0.43547816  0.31199462  0.54688974    -0.71700
O436        O  0.33369461  0.22218630  0.62079854    -0.71900
O437        O  0.31405638  0.24668071  0.55427285    -0.71700
O438        O  0.45345623  0.28677869  0.61791041    -0.71300
O439        O  0.44702731  0.36176150  0.64233164    -0.71700
O440        O  0.33781115  0.34100464  0.56736493    -0.71700
O441        O  0.32591066  0.30180410  0.63357137    -0.71700
O442        O  0.45546725  0.39802673  0.57412983    -0.71800
V443        V  0.38540128  0.26849916  0.58477094     1.35200
V444        V  0.39158225  0.34924202  0.60397688     1.35200
C445        C  0.46177695  0.37047874  0.54752314     0.77600
C446        C  0.64588934  0.24752878  0.63988463     0.77600
C447        C  0.63653925  0.28920483  0.55069301     0.77500
C448        C  0.46444955  0.32415171  0.64480569     0.77500
C449        C  0.52224257  0.26887940  0.71692201     0.80300
N450        N  0.47959440  0.25857662  0.74175107    -0.78000
C451        C  0.43816440  0.27824341  0.73645676     0.82800
N452        N  0.44198387  0.30801068  0.70656577    -0.77900
C453        C  0.48014613  0.31376838  0.68083951     0.82900
N454        N  0.51898323  0.29369531  0.68616251    -0.79600
N455        N  0.58501262  0.32420997  0.51396920    -0.03300
C456        C  0.56939770  0.36078044  0.53233654    -0.00800
C457        C  0.55034016  0.33751836  0.56478194    -0.23600
C458        C  0.54732179  0.28233442  0.56493734    -0.23900
C459        C  0.57932396  0.28122710  0.53632904    -0.00900
H460        H  0.54133063  0.35982229  0.58657161     0.12900
H461        H  0.54103508  0.25774531  0.58877427     0.13000
C462        C  0.38480282  0.12241603  0.79815058     0.80300
N463        N  0.39057459  0.16521308  0.77480742    -0.78000
C464        C  0.36466420  0.20058219  0.78113078     0.82800
N465        N  0.33382841  0.19146713  0.81159380    -0.77900
C466        C  0.33184392  0.15242104  0.83613221     0.82900
N467        N  0.35747681  0.11891767  0.82893571    -0.79600
C468        C  0.37942035  0.25859649  0.75878020    -0.02400
C469        C  0.42326999  0.09372704  0.79892361     0.80300
N470        N  0.45190709  0.10104414  0.83142256    -0.78000
C471        C  0.47050914  0.06304664  0.84192174     0.82800
N472        N  0.46434214  0.01847919  0.81787379    -0.77900
C473        C  0.43484975  0.00779068  0.78481809     0.82900
N474        N  0.41241038  0.04506794  0.77594834    -0.79600
C475        C  0.64149965  0.17151179  0.21878779     0.80300
N476        N  0.62178722  0.17380855  0.18528096    -0.78000
C477        C  0.60493859  0.21389785  0.17722943     0.82800
N478        N  0.60715946  0.25317813  0.20308392    -0.77900
C479        C  0.29889990  0.25839385  0.23631764     0.82900
N480        N  0.65020599  0.21670813  0.24448728    -0.79600
O481        O  0.36394674  0.20022986  0.96863390    -0.71700
O482        O  0.41600027  0.30318829  0.89361079    -0.71900
O483        O  0.40613706  0.32040748  0.96198464    -0.71700
O484        O  0.37155624  0.18507224  0.89677232    -0.71700
O485        O  0.28150396  0.17125254  0.88262531    -0.71700
O486        O  0.39023043  0.03651025  0.96016451    -0.71700
O487        O  0.32445203  0.29033910  0.88732799    -0.71700
O488        O  0.26811996  0.16938246  0.95699409    -0.71800
V489        V  0.38736910  0.25073794  0.93060517     1.35200
V490        V  0.29667742  0.22878705  0.92127214     1.35200
C491        C  0.30976383  0.17197394  0.97806053     0.77600
C492        C  0.45954050  0.04638822  0.87917306     0.77600
C493        C  0.44227479  0.06495955  0.97726696     0.77500
C494        C  0.32573038  0.16559443  0.87402864     0.77500
C495        C  0.66767121  0.12998092  0.21995092     0.80300
N496        N  0.65883707  0.08888999  0.24552267    -0.78000
C497        C  0.67630071  0.04593675  0.23954472     0.82800
N498        N  0.70118196  0.04552329  0.20840827    -0.77900
C499        C  0.70367567  0.08065645  0.18194754     0.82900
N500        N  0.68689283  0.12211814  0.18799498    -0.79600
O501        O  0.65472044  0.02404692  0.05257961    -0.71700
O502        O  0.57278482  0.24860000  0.12967982    -0.71900
O503        O  0.65070556  0.03868130  0.12509645    -0.71700
O504        O  0.56057636  0.21731682  0.05983328    -0.71700
O505        O  0.32349853  0.24977892  0.05203690    -0.71700
O506        O  0.39870119  0.03394516  0.13739435    -0.71700
O507        O  0.32404233  0.24798951  0.12425218    -0.71700
O508        O  0.41058216  0.03554224  0.06596660    -0.71800
V509        V  0.59181223  0.29305385  0.08870972     1.35200
V510        V  0.34717952  0.30860758  0.08979014     1.35200
C511        C  0.37802074  0.04965155  0.04739146     0.77600
C512        C  0.60962480  0.23360129  0.14121312     0.77600
C513        C  0.69807003  0.05425212  0.14562388     0.77500
C514        C  0.60041631  0.20872697  0.04604778     0.77500
N515        N  0.29805419  0.14827276  0.01307602    -0.03300
C516        C  0.33722563  0.14023468  0.03481137    -0.00800
C517        C  0.31278339  0.12336073  0.06718473    -0.23600
C518        C  0.59081937  0.12047140  0.06549511    -0.23900
C519        C  0.25606758  0.14791179  0.03464501    -0.00900
H520        H  0.33621512  0.12042398  0.09065636     0.12900
H521        H  0.56635030  0.11800092  0.08889345     0.13000
N522        N  0.40774591  0.10147281  0.02592476    -0.03300
C523        C  0.39775272  0.14829314  0.02604015    -0.00800
C524        C  0.44539163  0.19699361  0.00978257    -0.23600
C525        C  0.47770790  0.17394145  0.99374453    -0.23900
C526        C  0.45266655  0.11398250  0.00362167    -0.00900
H527        H  0.45303287  0.24264986  0.00709384     0.12900
H528        H  0.51080241  0.19617258  0.97390529     0.13000
C529        C  0.32776499  0.99060623  0.26307754    -0.02400
N530        N  0.50591471  0.40612434  0.52225497    -0.03300
C531        C  0.56024790  0.40985061  0.51900102    -0.00800
C532        C  0.61289651  0.12924725  0.49771812    -0.23600
C533        C  0.57232149  0.14316302  0.48164450    -0.23900
C534        C  0.51673061  0.10926292  0.49723685    -0.00900
H535        H  0.66030949  0.14808629  0.49138712     0.12900
H536        H  0.58040790  0.16894745  0.45824879     0.13000
C537        C  0.51151668  0.31391182  0.30156130     0.80300
N538        N  0.54595071  0.65011634  0.27889807    -0.78000
C539        C  0.59143461  0.63685516  0.28698613     0.82800
N540        N  0.59527654  0.61978583  0.32031772    -0.77900
C541        C  0.56762161  0.29150721  0.34349397     0.82900
N542        N  0.52283115  0.30270235  0.33507063    -0.79600
C543        C  0.47017311  0.34017821  0.30051243     0.80300
N544        N  0.47178329  0.36815418  0.33229269    -0.78000
C545        C  0.43139307  0.38526650  0.33931710     0.82800
N546        N  0.38792255  0.37520218  0.31367510    -0.77900
C547        C  0.38028879  0.34334764  0.28215877     0.82900
N548        N  0.42189162  0.32470530  0.27557987    -0.79600
O549        O  0.63640606  0.38475944  0.46691073    -0.71700
O550        O  0.39802225  0.42153406  0.38669817    -0.71900
O551        O  0.61180431  0.36059332  0.39512891    -0.71700
O552        O  0.42502648  0.44483939  0.45852345    -0.71700
O553        O  0.40369153  0.68119966  0.46834120    -0.71700
O554        O  0.60669508  0.60408095  0.39659572    -0.71700
O555        O  0.39491298  0.66692439  0.39674050    -0.71700
O556        O  0.61580322  0.62052320  0.46996252    -0.71800
V557        V  0.35097576  0.40159031  0.42718271     1.35200
V558        V  0.33829507  0.64458682  0.43300162     1.35200
C559        C  0.61470939  0.33413567  0.48096505     0.77600
C560        C  0.41541170  0.38592766  0.37610507     0.77600
C561        C  0.59650673  0.30850489  0.37999710     0.77500
C562        C  0.44206393  0.41274315  0.47449614     0.77500
C563        C  0.57283394  0.58539112  0.72066919     0.80300
N564        N  0.57512388  0.56461747  0.68759161    -0.78000
C565        C  0.62047255  0.55602258  0.67860526     0.82800
N566        N  0.66179847  0.56194065  0.70430832    -0.77900
C567        C  0.66449487  0.58503098  0.73788684     0.82900
N568        N  0.62007009  0.59902396  0.74611251    -0.79600
O569        O  0.42859882  0.63932259  0.54910721    -0.71700
O570        O  0.33018450  0.55253985  0.62461666    -0.71900
O571        O  0.30805174  0.57608345  0.55810975    -0.71700
O572        O  0.44954667  0.61518972  0.62004312    -0.71300
O573        O  0.44906513  0.69443092  0.64309945    -0.71700
O574        O  0.33036483  0.66946603  0.57284214    -0.71700
O575        O  0.32761509  0.63465726  0.63930360    -0.71700
O576        O  0.44806609  0.72630189  0.57473005    -0.71800
V577        V  0.38028802  0.59753073  0.58780998     1.35200
V578        V  0.38870259  0.67956088  0.60707529     1.35200
C579        C  0.45374261  0.69753971  0.54861119     0.77600
C580        C  0.64632411  0.58002800  0.64507227     0.77600
C581        C  0.62977067  0.61837778  0.55549848     0.77500
C582        C  0.46514057  0.65574860  0.64590416     0.77500
C583        C  0.53099785  0.61064325  0.72048196     0.80300
N584        N  0.48872570  0.60062905  0.74538753    -0.78000
C585        C  0.44590057  0.61769586  0.73890152     0.82800
N586        N  0.44735655  0.64424296  0.70810041    -0.77900
C587        C  0.48412034  0.64850619  0.68211148     0.82900
N588        N  0.52514993  0.63123284  0.68838745    -0.79600
N589        N  0.57780833  0.65195994  0.51725103    -0.03300
C590        C  0.56223955  0.68927082  0.53467344    -0.00800
C591        C  0.54402727  0.66810896  0.56756478    -0.23600
C592        C  0.54087629  0.61295546  0.56888925    -0.23900
C593        C  0.57261880  0.61028517  0.54056972    -0.00900
H594        H  0.53538281  0.69173212  0.58869482     0.12900
H595        H  0.53491860  0.58975128  0.59326641     0.13000
C596        C  0.36758750  0.45293283  0.80216866     0.80300
N597        N  0.38234680  0.49716473  0.77749805    -0.78000
C598        C  0.37083989  0.54452744  0.78455458     0.82800
N599        N  0.34575612  0.54567638  0.81549167    -0.77900
C600        C  0.33704149  0.50679290  0.84092602     0.82900
N601        N  0.34813300  0.46150556  0.83397410    -0.79600
C602        C  0.39047267  0.60231624  0.76216082    -0.02400
C603        C  0.38336753  0.40252233  0.80295674     0.80300
N604        N  0.38655829  0.38781079  0.83680319    -0.78000
C605        C  0.39655090  0.34305491  0.84453114     0.82800
N606        N  0.40346371  0.31077601  0.81838235    -0.77900
C607        C  0.39348924  0.31645912  0.78385792     0.82900
N608        N  0.38319247  0.36389138  0.77540501    -0.79600
C609        C  0.62830474  0.50286431  0.21795327     0.80300
N610        N  0.61147668  0.51047446  0.18473704    -0.78000
C611        C  0.59992451  0.55498270  0.17787133     0.82800
N612        N  0.60318890  0.59238537  0.20507241    -0.77900
C613        C  0.29141291  0.59129715  0.23828038     0.82900
N614        N  0.63860983  0.54632140  0.24500230    -0.79600
O615        O  0.37552887  0.55626356  0.97405664    -0.71700
O616        O  0.45703783  0.65309519  0.89621383    -0.71900
O617        O  0.45586363  0.67734814  0.96704043    -0.71700
O618        O  0.37892914  0.53400785  0.90135111    -0.71700
O619        O  0.31274965  0.55877906  0.88419574    -0.71700
O620        O  0.30763419  0.28598230  0.95746302    -0.71700
O621        O  0.38865407  0.67962546  0.89500484    -0.71700
O622        O  0.29234276  0.55344123  0.95482374    -0.71800
V623        V  0.41573623  0.60473349  0.93495110     1.35200
V624        V  0.34144130  0.61543610  0.92479853     1.35200
C625        C  0.31926026  0.53879777  0.97744662     0.77600
C626        C  0.37936035  0.31433993  0.87766724     0.77600
C627        C  0.36164788  0.32725595  0.96868244     0.77500
C628        C  0.33933468  0.52966597  0.87785106     0.77500
C629        C  0.65128410  0.45848567  0.21734605     0.80300
N630        N  0.64737963  0.41894116  0.24300176    -0.78000
C631        C  0.66272255  0.37461017  0.23499499     0.82800
N632        N  0.68057844  0.37192343  0.20171150    -0.77900
C633        C  0.67972014  0.40720728  0.17604011     0.82900
N634        N  0.66530553  0.44939440  0.18423023    -0.79600
O635        O  0.60643736  0.33623939  0.04735278    -0.71700
O636        O  0.59101270  0.60996396  0.13098812    -0.71900
O637        O  0.62238411  0.36618153  0.11980419    -0.71700
O638        O  0.58709513  0.59233937  0.05998871    -0.71700
O639        O  0.33980258  0.59351953  0.06008606    -0.71700
O640        O  0.37546721  0.36850383  0.12824728    -0.71700
O641        O  0.33170609  0.59121115  0.13059765    -0.71700
O642        O  0.37071691  0.36820053  0.05500900    -0.71800
V643        V  0.62841224  0.66255667  0.09343425     1.35200
V644        V  0.37183428  0.65412244  0.09842600     1.35200
C645        C  0.32698583  0.36669746  0.03672761     0.77600
C646        C  0.61657638  0.58313051  0.14382703     0.77600
C647        C  0.67220471  0.38397761  0.13884386     0.77500
C648        C  0.61727993  0.56914842  0.04898525     0.77500
N649        N  0.28335388  0.49751484  0.00349788    -0.03300
C650        C  0.26916434  0.43900021  0.00533692    -0.00800
C651        C  0.22504233  0.41011012  0.02987775    -0.23600
C652        C  0.55007865  0.45520253  0.04549884    -0.23900
C653        C  0.25444752  0.50881970  0.02905052    -0.00900
H654        H  0.20098355  0.36246760  0.03641695     0.12900
H655        H  0.52434780  0.45051520  0.06859242     0.13000
N656        N  0.33624203  0.39297633  0.00285629    -0.03300
C657        C  0.30566828  0.41753515  0.98745974    -0.00800
C658        C  0.32134989  0.42945678  0.95297336    -0.23600
C659        C  0.36461600  0.41440995  0.94734380    -0.23900
C660        C  0.36884969  0.38669306  0.97725271    -0.00900
H661        H  0.30112862  0.44484473  0.93349075     0.12900
H662        H  0.38020100  0.41141212  0.92145850     0.13000
C663        C  0.31782682  0.32007306  0.25931504    -0.02400
N664        N  0.49714086  0.73222781  0.52296905    -0.03300
C665        C  0.55177866  0.73669735  0.52000436    -0.00800
C666        C  0.59460446  0.45472698  0.49584236    -0.23600
C667        C  0.55595253  0.47209564  0.48115637    -0.23900
C668        C  0.50025719  0.43912963  0.49671554    -0.00900
H669        H  0.64155160  0.47236433  0.48914766     0.12900
H670        H  0.56473020  0.49866518  0.45802128     0.13000
C671        C  0.50505727  0.64353198  0.30414535     0.80300
N672        N  0.56063618  0.98763191  0.27965899    -0.78000
C673        C  0.60770755  0.97684458  0.28797896     0.82800
N674        N  0.61424393  0.96324605  0.32184770    -0.77900
C675        C  0.55880113  0.61835972  0.34587376     0.82900
N676        N  0.51421076  0.62961439  0.33729812    -0.79600
C677        C  0.46390518  0.66958391  0.30354069     0.80300
N678        N  0.46545814  0.69736345  0.33548619    -0.78000
C679        C  0.42458168  0.71389034  0.34257970     0.82800
N680        N  0.38114643  0.70330553  0.31707532    -0.77900
C681        C  0.37300405  0.67038600  0.28604729     0.82900
N682        N  0.41495276  0.65273499  0.27897617    -0.79600
O683        O  0.62578758  0.71009363  0.46890855    -0.71700
O684        O  0.38956112  0.74842579  0.38978024    -0.71900
O685        O  0.60289096  0.68740389  0.39714655    -0.71700
O686        O  0.41427867  0.77055087  0.46129159    -0.71700
O687        O  0.42724552  0.02499632  0.46873605    -0.71700
O688        O  0.62736458  0.94869499  0.39830255    -0.71700
O689        O  0.41524974  0.00992093  0.39687371    -0.71700
O690        O  0.63941694  0.96618263  0.47185915    -0.71800
V691        V  0.34101142  0.72745706  0.42962569     1.35200
V692        V  0.36043181  0.98880826  0.43400874     1.35200
C693        C  0.60616023  0.66054502  0.48388349     0.77600
C694        C  0.40658036  0.71261989  0.37891746     0.77600
C695        C  0.58654041  0.63474042  0.38253560     0.77500
C696        C  0.43271100  0.73873695  0.47611293     0.77500
C697        C  0.59576952  0.92293745  0.72037945     0.80300
N698        N  0.60021852  0.90476671  0.68705194    -0.78000
C699        C  0.64696548  0.89819958  0.67822780     0.82800
N700        N  0.68808036  0.90401120  0.70405945    -0.77900
C701        C  0.68838842  0.92400385  0.73797750     0.82900
N702        N  0.64212817  0.93552497  0.74615351    -0.79600
O703        O  0.45620256  0.98512058  0.54944241    -0.71700
O704        O  0.35702462  0.89671580  0.62416196    -0.71900
O705        O  0.33539965  0.92313721  0.55858319    -0.71700
O706        O  0.47631986  0.95850869  0.61998006    -0.71300
O707        O  0.47746863  0.03815797  0.64382672    -0.71700
O708        O  0.35930050  0.01660161  0.57465443    -0.71700
O709        O  0.35617861  0.97924785  0.64043646    -0.71700
O710        O  0.47634008  0.07182082  0.57585139    -0.71800
V711        V  0.40754533  0.94266515  0.58786880     1.35200
V712        V  0.41726615  0.02477499  0.60825574     1.35200
C713        C  0.48104656  0.04330841  0.54920188     0.77600
C714        C  0.67359711  0.92385582  0.64519836     0.77600
C715        C  0.65758688  0.96605567  0.55718224     0.77500
C716        C  0.49214428  0.99843616  0.64626411     0.77500
C717        C  0.55405622  0.94868876  0.72029699     0.80300
N718        N  0.51271535  0.94074340  0.74550029    -0.78000
C719        C  0.47170955  0.96044491  0.73940386     0.82800
N720        N  0.47418539  0.98749306  0.70862591    -0.77900
C721        C  0.50995703  0.98979855  0.68240246     0.82900
N722        N  0.54896701  0.96998654  0.68835887    -0.79600
N723        N  0.60536601  0.00062202  0.51995843    -0.03300
C724        C  0.59159208  0.03948499  0.53724550    -0.00800
C725        C  0.57462875  0.02010914  0.57062712    -0.23600
C726        C  0.57123725  0.96486375  0.57255372    -0.23900
C727        C  0.60055709  0.95966294  0.54362007    -0.00900
H728        H  0.56580542  0.04422608  0.59144914     0.12900
H729        H  0.56624224  0.94268674  0.59723285     0.13000
C730        C  0.40455390  0.80665458  0.80767112     0.80300
N731        N  0.41125562  0.84491930  0.78078176    -0.78000
C732        C  0.40019068  0.89241855  0.78712196     0.82800
N733        N  0.38164766  0.89864831  0.81921433    -0.77900
C734        C  0.38012294  0.86546379  0.84632080     0.82900
N735        N  0.39276977  0.82069895  0.84067981    -0.79600
C736        C  0.41566781  0.94572333  0.76239212    -0.02400
C737        C  0.42169271  0.75777884  0.80697366     0.80300
N738        N  0.44241779  0.75242111  0.83948459    -0.78000
C739        C  0.44991195  0.70537226  0.84667443     0.82800
N740        N  0.43839971  0.66283888  0.82013526    -0.77900
C741        C  0.41375311  0.66248217  0.78740349     0.82900
N742        N  0.40428859  0.71056539  0.78069608    -0.79600
C743        C  0.63993283  0.83804026  0.22316494     0.80300
N744        N  0.61855693  0.83864062  0.18982767    -0.78000
C745        C  0.60693386  0.88206791  0.18054276     0.82800
N746        N  0.61533689  0.92584752  0.20561753    -0.77900
C747        C  0.30586173  0.92962362  0.23922790     0.82900
N748        N  0.65303738  0.88561378  0.24789980    -0.79600
O749        O  0.41983374  0.92658276  0.97429095    -0.71700
O750        O  0.49229741  0.03234037  0.89778332    -0.71900
O751        O  0.48179810  0.05095088  0.96987830    -0.71700
O752        O  0.43159810  0.91226179  0.90304393    -0.71700
O753        O  0.34875876  0.91276888  0.88767862    -0.71700
O754        O  0.36754975  0.67166813  0.96414966    -0.71700
O755        O  0.40845675  0.03447137  0.89039444    -0.71700
O756        O  0.33145899  0.91482727  0.95754036    -0.71800
V757        V  0.45516922  0.98079364  0.93647772     1.35200
V758        V  0.37161356  0.97498160  0.92444563     1.35200
C759        C  0.36201464  0.90000126  0.97734464     0.77600
C760        C  0.43483242  0.68211794  0.88197741     0.77600
C761        C  0.42275260  0.69798293  0.97691035     0.77500
C762        C  0.38443794  0.89359981  0.88175098     0.77500
C763        C  0.66736454  0.79861248  0.22463145     0.80300
N764        N  0.65012237  0.75151845  0.24703665    -0.78000
C765        C  0.66584448  0.70786608  0.24030389     0.82800
N766        N  0.69665794  0.71174316  0.21063949    -0.77900
C767        C  0.70940430  0.75500018  0.18694810     0.82900
N768        N  0.69486849  0.79781795  0.19452520    -0.79600
O769        O  0.66338883  0.71549294  0.05593443    -0.71700
O770        O  0.58653349  0.91846616  0.12795647    -0.71900
O771        O  0.66546241  0.73087276  0.12793198    -0.71700
O772        O  0.59048048  0.90205455  0.05592232    -0.71700
O773        O  0.34826822  0.91418578  0.06114875    -0.71700
O774        O  0.40512728  0.71272854  0.13894388    -0.71700
O775        O  0.33504122  0.91209472  0.13177432    -0.71700
O776        O  0.41404386  0.71536194  0.06493318    -0.71800
V777        V  0.62210366  0.97096360  0.09025382     1.35200
V778        V  0.37148477  0.97367202  0.09867462     1.35200
C779        C  0.38274044  0.73114363  0.04623890     0.77600
C780        C  0.61835603  0.90106310  0.14418429     0.77600
C781        C  0.70843278  0.73682593  0.14904597     0.77500
C782        C  0.62847037  0.88799133  0.04564655     0.77500
N783        N  0.32820028  0.84852929  0.99894759    -0.03300
C784        C  0.32883358  0.79607317  0.99914031    -0.00800
C785        C  0.27396712  0.74998287  0.01157534    -0.23600
C786        C  0.57879611  0.77874193  0.02538107    -0.23900
C787        C  0.28075342  0.83983948  0.01796947    -0.00900
H788        H  0.25739134  0.70127745  0.01218592     0.12900
H789        H  0.54078706  0.75846583  0.04255019     0.13000
N790        N  0.40621951  0.76423788  0.01432016    -0.03300
C791        C  0.38485153  0.79338727  0.99406432    -0.00800
C792        C  0.42091291  0.81705577  0.96575552    -0.23600
C793        C  0.46430200  0.80079639  0.96794908    -0.23900
C794        C  0.44687457  0.75934801  0.99425213    -0.00900
H795        H  0.41125924  0.83550534  0.94325600     0.12900
H796        H  0.49124768  0.80293559  0.94584635     0.13000
C797        C  0.31276156  0.65065009  0.26289664    -0.02400
N798        N  0.52379469  0.07824220  0.52339533    -0.03300
C799        C  0.57966817  0.08522377  0.52155388    -0.00800
C800        C  0.58580823  0.78162079  0.49676647    -0.23600
C801        C  0.54679029  0.79868766  0.48212420    -0.23900
C802        C  0.49121333  0.76537892  0.49778025    -0.00900
H803        H  0.63290919  0.79968127  0.49012655     0.12900
H804        H  0.55557611  0.82608086  0.45935243     0.13000
C805        C  0.85437004  0.98268264  0.30525405     0.80300
N806        N  0.88406860  0.31800978  0.27588413    -0.78000
C807        C  0.92997075  0.30515372  0.28382956     0.82800
N808        N  0.93582855  0.29065672  0.31754877    -0.77900
C809        C  0.91214247  0.96302036  0.34772996     0.82900
N810        N  0.86622699  0.97248574  0.33900918    -0.79600
C811        C  0.81285989  0.00846012  0.30382467     0.80300
N812        N  0.81557752  0.03775662  0.33525975    -0.78000
C813        C  0.77583814  0.05554708  0.34219124     0.82800
N814        N  0.73242603  0.04556957  0.31666590    -0.77900
C815        C  0.72327919  0.01194608  0.28565147     0.82900
N816        N  0.76397077  0.99215284  0.27911395    -0.79600
O817        O  0.98513762  0.05676778  0.47098181    -0.71700
O818        O  0.74383516  0.09182704  0.39001818    -0.71900
O819        O  0.95803411  0.03257321  0.39923884    -0.71700
O820        O  0.77284984  0.11496443  0.46131313    -0.71700
O821        O  0.74551524  0.35500159  0.46714482    -0.71700
O822        O  0.95161377  0.27883870  0.39349567    -0.71700
O823        O  0.73964240  0.34211855  0.39505131    -0.71700
O824        O  0.95718191  0.29404807  0.46659872    -0.71800
V825        V  0.69791386  0.07245428  0.43077609     1.35200
V826        V  0.68162539  0.31886339  0.43068964     1.35200
C827        C  0.96510172  0.00736129  0.48611986     0.77600
C828        C  0.75933893  0.05511033  0.37875638     0.77600
C829        C  0.94071407  0.97968225  0.38446690     0.77500
C830        C  0.79090422  0.08276257  0.47611660     0.77500
C831        C  0.89723955  0.24291693  0.71557076     0.80300
N832        N  0.90467132  0.22975859  0.68163624    -0.78000
C833        C  0.95091079  0.22212418  0.67286910     0.82800
N834        N  0.98928954  0.22341264  0.69904407    -0.77900
C835        C  0.98691977  0.23892333  0.73357955     0.82900
N836        N  0.94088155  0.25069205  0.74188599    -0.79600
O837        O  0.76878465  0.31195695  0.54688856    -0.71700
O838        O  0.66704359  0.22212571  0.62081066    -0.71900
O839        O  0.64735810  0.24656016  0.55427763    -0.71700
O840        O  0.78680472  0.28679938  0.61791348    -0.71300
O841        O  0.78030292  0.36174504  0.64232330    -0.71700
O842        O  0.67103983  0.34086319  0.56735475    -0.71700
O843        O  0.65918086  0.30169960  0.63356814    -0.71700
O844        O  0.78870482  0.39797302  0.57411618    -0.71800
V845        V  0.71872593  0.26844914  0.58477526     1.35200
V846        V  0.72483600  0.34916329  0.60396784     1.35200
C847        C  0.79504951  0.37043785  0.54751651     0.77600
C848        C  0.97928818  0.24762382  0.63986961     0.77600
C849        C  0.96997515  0.28933408  0.55068251     0.77500
C850        C  0.79777138  0.32417315  0.64480345     0.77500
C851        C  0.85560204  0.26893297  0.71691009     0.80300
N852        N  0.81297230  0.25864497  0.74174925    -0.78000
C853        C  0.77154349  0.27831758  0.73646582     0.82800
N854        N  0.77534710  0.30807594  0.70657257    -0.77900
C855        C  0.81349543  0.31382328  0.68083844     0.82900
N856        N  0.85232921  0.29374487  0.68615301    -0.79600
N857        N  0.91842969  0.32432246  0.51395765    -0.03300
C858        C  0.90273991  0.36083706  0.53231771    -0.00800
C859        C  0.88367718  0.33755392  0.56475830    -0.23600
C860        C  0.88071969  0.28240041  0.56491458    -0.23900
C861        C  0.91275625  0.28134009  0.53631373    -0.00900
H862        H  0.87463209  0.35982635  0.58654511     0.12900
H863        H  0.87444186  0.25781028  0.58874937     0.13000
C864        C  0.71825353  0.12251886  0.79816908     0.80300
N865        N  0.72400030  0.16530435  0.77482546    -0.78000
C866        C  0.69807626  0.20065822  0.78115327     0.82800
N867        N  0.66724451  0.19153176  0.81161948    -0.77900
C868        C  0.66528416  0.15249593  0.83615805     0.82900
N869        N  0.69093823  0.11901446  0.82895929    -0.79600
C870        C  0.71279531  0.25865480  0.75879399    -0.02400
C871        C  0.75672402  0.09383799  0.79892984     0.80300
N872        N  0.78537969  0.10116892  0.83142374    -0.78000
C873        C  0.80395265  0.06315336  0.84192857     0.82800
N874        N  0.79775038  0.01855891  0.81788787    -0.77900
C875        C  0.76824887  0.00786443  0.78483397     0.82900
N876        N  0.74582940  0.04515670  0.77596255    -0.79600
C877        C  0.97481354  0.17150080  0.21879288     0.80300
N878        N  0.95511977  0.17381511  0.18528543    -0.78000
C879        C  0.93829958  0.21392335  0.17723248     0.82800
N880        N  0.94052156  0.25320364  0.20308687    -0.77900
C881        C  0.63223389  0.25846289  0.23633358     0.82900
N882        N  0.98351804  0.21669274  0.24449632    -0.79600
O883        O  0.69729832  0.20032721  0.96866473    -0.71700
O884        O  0.74923688  0.30323541  0.89362342    -0.71900
O885        O  0.73932102  0.32045585  0.96198963    -0.71700
O886        O  0.70494880  0.18516011  0.89680715    -0.71700
O887        O  0.61484791  0.17120911  0.88264002    -0.71700
O888        O  0.72372942  0.03672087  0.96017820    -0.71700
O889        O  0.65763553  0.29025853  0.88732802    -0.71700
O890        O  0.60143585  0.16932372  0.95700896    -0.71800
V891        V  0.72066110  0.25080597  0.93062643     1.35200
V892        V  0.62992717  0.22871962  0.92127948     1.35200
C893        C  0.64311310  0.17199633  0.97808455     0.77600
C894        C  0.79298551  0.04652087  0.87918330     0.77600
C895        C  0.77576995  0.06516683  0.97728292     0.77500
C896        C  0.65912705  0.16563246  0.87405347     0.77500
C897        C  0.00096553  0.12995064  0.21994952     0.80300
N898        N  0.99217002  0.08888823  0.24553215    -0.78000
C899        C  0.00962869  0.04593074  0.23955225     0.82800
N900        N  0.03447513  0.04549237  0.20840692    -0.77900
C901        C  0.03692450  0.08059156  0.18193770     0.82900
N902        N  0.02014055  0.12205203  0.18798448    -0.79600
O903        O  0.98794641  0.02393778  0.05257344    -0.71700
O904        O  0.90618455  0.24864384  0.12968018    -0.71900
O905        O  0.98393362  0.03859016  0.12508986    -0.71700
O906        O  0.89397904  0.21739374  0.05983079    -0.71700
O907        O  0.65670298  0.24975322  0.05204284    -0.71700
O908        O  0.73220070  0.03418341  0.13744212    -0.71700
O909        O  0.65721951  0.24793928  0.12426544    -0.71700
O910        O  0.74412503  0.03581117  0.06601532    -0.71800
V911        V  0.92524213  0.29312019  0.08872125     1.35200
V912        V  0.68031609  0.30855183  0.08979852     1.35200
C913        C  0.71155512  0.04989095  0.04742476     0.77600
C914        C  0.94301236  0.23363557  0.14121889     0.77600
C915        C  0.03129814  0.05416127  0.14561792     0.77500
C916        C  0.93380000  0.20876975  0.04604942     0.77500
N917        N  0.63144118  0.14831156  0.01310450    -0.03300
C918        C  0.67069919  0.14040024  0.03484605    -0.00800
C919        C  0.64629657  0.12354080  0.06722825    -0.23600
C920        C  0.92409380  0.12045269  0.06546898    -0.23900
C921        C  0.58941061  0.14786707  0.03467199    -0.00900
H922        H  0.66979046  0.12068845  0.09070566     0.12900
H923        H  0.89962897  0.11799618  0.08886731     0.13000
N924        N  0.74126566  0.10170231  0.02595003    -0.03300
C925        C  0.73124095  0.14850240  0.02605978    -0.00800
C926        C  0.77884291  0.19719490  0.00977697    -0.23600
C927        C  0.81116203  0.17415083  0.99373343    -0.23900
C928        C  0.78616295  0.11420624  0.00362884    -0.00900
H929        H  0.78645278  0.24283817  0.00707344     0.12900
H930        H  0.84422791  0.19637265  0.97387746     0.13000
C931        C  0.66116549  0.99071615  0.26310379    -0.02400
N932        N  0.83917783  0.40610182  0.52224636    -0.03300
C933        C  0.89353012  0.40986778  0.51898138    -0.00800
C934        C  0.94626073  0.12918841  0.49778840    -0.23600
C935        C  0.90572388  0.14315857  0.48171851    -0.23900
C936        C  0.85011213  0.10925963  0.49728955    -0.00900
H937        H  0.99367659  0.14801398  0.49147377     0.12900
H938        H  0.91385415  0.16899308  0.45833819     0.13000
C939        C  0.84489153  0.31398406  0.30159382     0.80300
N940        N  0.87923099  0.65003747  0.27889038    -0.78000
C941        C  0.92469483  0.63675122  0.28697564     0.82800
N942        N  0.92851031  0.61964867  0.32030339    -0.77900
C943        C  0.90104186  0.29162126  0.34352309     0.82900
N944        N  0.85625394  0.30282673  0.33510816    -0.79600
C945        C  0.80351049  0.34022096  0.30054133     0.80300
N946        N  0.80509330  0.36817671  0.33232301    -0.78000
C947        C  0.76470530  0.38529729  0.33933855     0.82800
N948        N  0.72126127  0.37526180  0.31368664    -0.77900
C949        C  0.71364386  0.34342329  0.28216760     0.82900
N950        N  0.75524615  0.32477073  0.27559669    -0.79600
O951        O  0.96991324  0.38493663  0.46693359    -0.71700
O952        O  0.73124049  0.42148307  0.38671062    -0.71900
O953        O  0.94524564  0.36071542  0.39515645    -0.71700
O954        O  0.75822382  0.44476266  0.45853421    -0.71700
O955        O  0.73712771  0.68129503  0.46834182    -0.71700
O956        O  0.93985223  0.60391861  0.39660492    -0.71700
O957        O  0.72837914  0.66704259  0.39674156    -0.71700
O958        O  0.94900257  0.62043407  0.46997877    -0.71800
V959        V  0.68418239  0.40148921  0.42719162     1.35200
V960        V  0.67174390  0.64469079  0.43299223     1.35200
C961        C  0.94816721  0.33428575  0.48096556     0.77600
C962        C  0.74868077  0.38591771  0.37611897     0.77600
C963        C  0.92997109  0.30863936  0.38001640     0.77500
C964        C  0.77528808  0.41268411  0.47450148     0.77500
C965        C  0.90610707  0.58533071  0.72066922     0.80300
N966        N  0.90837677  0.56454617  0.68758997    -0.78000
C967        C  0.95372320  0.55595077  0.67859628     0.82800
N968        N  0.99505905  0.56187045  0.70429326    -0.77900
C969        C  0.99777631  0.58497435  0.73787080     0.82900
N970        N  0.95335774  0.59897094  0.74610332    -0.79600
O971        O  0.76203643  0.63943773  0.54912671    -0.71700
O972        O  0.66361091  0.55263337  0.62462729    -0.71900
O973        O  0.64149726  0.57616089  0.55811128    -0.71700
O974        O  0.78297388  0.61531182  0.62006895    -0.71300
O975        O  0.78246526  0.69453941  0.64312031    -0.71700
O976        O  0.66375172  0.66952338  0.57284616    -0.71700
O977        O  0.66101658  0.63473767  0.63931180    -0.71700
O978        O  0.78146212  0.72640706  0.57474004    -0.71800
V979        V  0.71372261  0.59763443  0.58782553     1.35200
V980        V  0.72210082  0.67965056  0.60708570     1.35200
C981        C  0.78715740  0.69765147  0.54862479     0.77600
C982        C  0.97957403  0.57996506  0.64506501     0.77600
C983        C  0.96301244  0.61834306  0.55550883     0.77500
C984        C  0.79854421  0.65585918  0.64593264     0.77500
C985        C  0.86430474  0.61062038  0.72048963     0.80300
N986        N  0.82203969  0.60062144  0.74539646    -0.78000
C987        C  0.77926715  0.61776002  0.73892763     0.82800
N988        N  0.78076386  0.64435820  0.70813761    -0.77900
C989        C  0.81751401  0.64860126  0.68214243     0.82900
N990        N  0.85849006  0.63125482  0.68840487    -0.79600
N991        N  0.91107427  0.65195441  0.51726893    -0.03300
C992        C  0.89562215  0.68935202  0.53470159    -0.00800
C993        C  0.87744607  0.66824669  0.56760804    -0.23600
C994        C  0.87419422  0.61304198  0.56893122    -0.23900
C995        C  0.90586624  0.61028469  0.54059612    -0.00900
H996        H  0.86885182  0.69191359  0.58873518     0.12900
H997        H  0.86822997  0.58984628  0.59331281     0.13000
C998        C  0.70079664  0.45292695  0.80217060     0.80300
N999        N  0.71561558  0.49718859  0.77751270    -0.78000
C1000       C  0.70416489  0.54458746  0.78457801     0.82800
N1001       N  0.67907732  0.54574485  0.81551389    -0.77900
C1002       C  0.67029316  0.50682242  0.84093745     0.82900
N1003       N  0.68132744  0.46149652  0.83397371    -0.79600
C1004       C  0.72383090  0.60238226  0.76218265    -0.02400
C1005       C  0.71654979  0.40249455  0.80295801     0.80300
N1006       N  0.71967818  0.38774779  0.83680194    -0.78000
C1007       C  0.72972825  0.34303482  0.84453583     0.82800
N1008       N  0.73675015  0.31082332  0.81839511    -0.77900
C1009       C  0.72681031  0.31651180  0.78386640     0.82900
N1010       N  0.71647189  0.36391668  0.77540617    -0.79600
C1011       C  0.96159222  0.50279205  0.21794769     0.80300
N1012       N  0.94470327  0.51035182  0.18473471    -0.78000
C1013       C  0.93311825  0.55483952  0.17786670     0.82800
N1014       N  0.93641277  0.59226734  0.20506521    -0.77900
C1015       C  0.62478468  0.59142818  0.23829366     0.82900
N1016       N  0.97191453  0.54626562  0.24498796    -0.79600
O1017       O  0.70878911  0.55626810  0.97409103    -0.71700
O1018       O  0.79028812  0.65304290  0.89622448    -0.71900
O1019       O  0.78918029  0.67733456  0.96704931    -0.71700
O1020       O  0.71213063  0.53396463  0.90137784    -0.71700
O1021       O  0.64601313  0.55881433  0.88422302    -0.71700
O1022       O  0.64078632  0.28588574  0.95746199    -0.71700
O1023       O  0.72196629  0.67965441  0.89504752    -0.71700
O1024       O  0.62561885  0.55348016  0.95486308    -0.71800
V1025       V  0.74899366  0.60470539  0.93497205     1.35200
V1026       V  0.67473471  0.61546654  0.92483628     1.35200
C1027       C  0.65253197  0.53884142  0.97749208     0.77600
C1028       C  0.71255219  0.31431571  0.87767041     0.77600
C1029       C  0.69477576  0.32721669  0.96868230     0.77500
C1030       C  0.67256691  0.52966970  0.87787186     0.77500
C1031       C  0.98463673  0.45847409  0.21734644     0.80300
N1032       N  0.98070117  0.41891406  0.24299663    -0.78000
C1033       C  0.99608231  0.37461218  0.23500332     0.82800
N1034       N  0.01400263  0.37196015  0.20173220    -0.77900
C1035       C  0.01317308  0.40725898  0.17605943     0.82900
N1036       N  0.99872530  0.44942679  0.18424107    -0.79600
O1037       O  0.93988625  0.33632766  0.04737626    -0.71700
O1038       O  0.92414055  0.60976400  0.13096209    -0.71900
O1039       O  0.95583542  0.36623806  0.11982622    -0.71700
O1040       O  0.92024082  0.59214368  0.05995407    -0.71700
O1041       O  0.67324723  0.59370338  0.06013227    -0.71700
O1042       O  0.70854833  0.36843454  0.12824761    -0.71700
O1043       O  0.66516219  0.59141349  0.13063980    -0.71700
O1044       O  0.70380907  0.36814650  0.05502198    -0.71800
V1045       V  0.96153361  0.66235968  0.09340277     1.35200
V1046       V  0.70532556  0.65431669  0.09846751     1.35200
C1047       C  0.66005713  0.36658786  0.03673051     0.77600
C1048       C  0.94972715  0.58295551  0.14380876     0.77600
C1049       C  0.00565638  0.38402391  0.13886199     0.77500
C1050       C  0.95044880  0.56898022  0.04894799     0.77500
N1051       N  0.61663412  0.49761047  0.00356749    -0.03300
C1052       C  0.60238447  0.43907884  0.00542600    -0.00800
C1053       C  0.55834375  0.41027755  0.03002112    -0.23600
C1054       C  0.88329092  0.45503695  0.04542262    -0.23900
C1055       C  0.58782573  0.50900282  0.02914434    -0.00900
H1056       H  0.53428277  0.36266276  0.03659991     0.12900
H1057       H  0.85751823  0.45031220  0.06850298     0.13000
N1058       N  0.66930972  0.39289583  0.00286866    -0.03300
C1059       C  0.63876759  0.41751208  0.98750592    -0.00800
C1060       C  0.65438893  0.42941289  0.95300774    -0.23600
C1061       C  0.69760318  0.41431313  0.94733897    -0.23900
C1062       C  0.70187901  0.38660914  0.97724154    -0.00900
H1063       H  0.63417482  0.44484033  0.93354526     0.12900
H1064       H  0.71314522  0.41130300  0.92144127     0.13000
C1065       C  0.65117334  0.32014704  0.25932493    -0.02400
N1066       N  0.83056633  0.73234370  0.52298698    -0.03300
C1067       C  0.88519448  0.73679324  0.52002717    -0.00800
C1068       C  0.92785120  0.45474860  0.49581803    -0.23600
C1069       C  0.88916942  0.47208696  0.48114431    -0.23900
C1070       C  0.83348768  0.43909647  0.49671305    -0.00900
H1071       H  0.97480546  0.47242500  0.48911634     0.12900
H1072       H  0.89791639  0.49864979  0.45800823     0.13000
C1073       C  0.83831588  0.64342830  0.30412668     0.80300
N1074       N  0.89398836  0.98765285  0.27967596    -0.78000
C1075       C  0.94104817  0.97684694  0.28799117     0.82800
N1076       N  0.94757156  0.96322295  0.32185603    -0.77900
C1077       C  0.89200598  0.61819184  0.34585268     0.82900
N1078       N  0.84742073  0.62945157  0.33727137    -0.79600
C1079       C  0.79723711  0.66955813  0.30353281     0.80300
N1080       N  0.79884285  0.69737464  0.33547636    -0.78000
C1081       C  0.75802213  0.71397676  0.34257266     0.82800
N1082       N  0.71459398  0.70342923  0.31707251    -0.77900
C1083       C  0.70640045  0.67047460  0.28605015     0.82900
N1084       N  0.74828865  0.65274896  0.27897700    -0.79600
O1085       O  0.95895147  0.70998388  0.46887780    -0.71700
O1086       O  0.72299705  0.74852400  0.38977027    -0.71900
O1087       O  0.93608363  0.68725942  0.39711573    -0.71700
O1088       O  0.74773524  0.77065265  0.46128194    -0.71700
O1089       O  0.76059517  0.02504470  0.46877751    -0.71700
O1090       O  0.96068161  0.94863833  0.39830651    -0.71700
O1091       O  0.74859353  0.00996086  0.39691216    -0.71700
O1092       O  0.97271256  0.96609715  0.47186970    -0.71800
V1093       V  0.67446106  0.72756191  0.42962539     1.35200
V1094       V  0.69378316  0.98890384  0.43404945     1.35200
C1095       C  0.93936312  0.66047012  0.48388326     0.77600
C1096       C  0.74003147  0.71272618  0.37891237     0.77600
C1097       C  0.91972516  0.63458296  0.38252053     0.77500
C1098       C  0.76615394  0.73883446  0.47611057     0.77500
C1099       C  0.92911877  0.92292882  0.72037772     0.80300
N1100       N  0.93359682  0.90478923  0.68704767    -0.78000
C1101       C  0.98034371  0.89821625  0.67823001     0.82800
N1102       N  0.02144102  0.90400999  0.70406485    -0.77900
C1103       C  0.02173732  0.92399286  0.73798138     0.82900
N1104       N  0.97546821  0.93550499  0.74615712    -0.79600
O1105       O  0.78945817  0.98507047  0.54945714    -0.71700
O1106       O  0.69025586  0.89670187  0.62417312    -0.71900
O1107       O  0.66864447  0.92318247  0.55860255    -0.71700
O1108       O  0.80954373  0.95841653  0.61998198    -0.71300
O1109       O  0.81074070  0.03808230  0.64384789    -0.71700
O1110       O  0.69266282  0.01668498  0.57467241    -0.71700
O1111       O  0.68946144  0.97926228  0.64044822    -0.71700
O1112       O  0.80968698  0.07179031  0.57588733    -0.71800
V1113       V  0.74078107  0.94263370  0.58787906     1.35200
V1114       V  0.75057780  0.02477100  0.60827757     1.35200
C1115       C  0.81436350  0.04326668  0.54923259     0.77600
C1116       C  0.00699772  0.92387028  0.64520693     0.77600
C1117       C  0.99095174  0.96600360  0.55719629     0.77500
C1118       C  0.82539682  0.99834557  0.64626970     0.77500
C1119       C  0.88736851  0.94864588  0.72029664     0.80300
N1120       N  0.84605979  0.94074430  0.74551600    -0.78000
C1121       C  0.80505552  0.96045350  0.73942102     0.82800
N1122       N  0.80751091  0.98746917  0.70863555    -0.77900
C1123       C  0.84323522  0.98971767  0.68240016     0.82900
N1124       N  0.88223872  0.96989829  0.68835052    -0.79600
N1125       N  0.93867074  0.00051787  0.51998543    -0.03300
C1126       C  0.92486729  0.03935507  0.53727656    -0.00800
C1127       C  0.90789858  0.01996268  0.57065431    -0.23600
C1128       C  0.90457294  0.96475076  0.57258712    -0.23900
C1129       C  0.93389946  0.95957539  0.54364797    -0.00900
H1130       H  0.89907091  0.04407304  0.59148024     0.12900
H1131       H  0.89960856  0.94258911  0.59726780     0.13000
C1132       C  0.73787165  0.80670495  0.80771170     0.80300
N1133       N  0.74456597  0.84495630  0.78081582    -0.78000
C1134       C  0.73353299  0.89247817  0.78715352     0.82800
N1135       N  0.71503238  0.89874691  0.81925297    -0.77900
C1136       C  0.71351864  0.86557580  0.84636499     0.82900
N1137       N  0.72612793  0.82078432  0.84072358    -0.79600
C1138       C  0.74902719  0.94577701  0.76241456    -0.02400
C1139       C  0.75498563  0.75780897  0.80701555     0.80300
N1140       N  0.77568769  0.75243050  0.83952812    -0.78000
C1141       C  0.78320470  0.70539262  0.84670920     0.82800
N1142       N  0.77173394  0.66288962  0.82016092    -0.77900
C1143       C  0.74709827  0.66254407  0.78742786     0.82900
N1144       N  0.73761533  0.71061865  0.78072735    -0.79600
C1145       C  0.97317123  0.83797596  0.22318008     0.80300
N1146       N  0.95175856  0.83856455  0.18985038    -0.78000
C1147       C  0.94017520  0.88201724  0.18056343     0.82800
N1148       N  0.94863963  0.92582979  0.20563350    -0.77900
C1149       C  0.63927186  0.92974770  0.23924764     0.82900
N1150       N  0.98634041  0.88558376  0.24790914    -0.79600
O1151       O  0.75336039  0.92676943  0.97431546    -0.71700
O1152       O  0.82576564  0.03251813  0.89780542    -0.71900
O1153       O  0.81528464  0.05113868  0.96990398    -0.71700
O1154       O  0.76507624  0.91244089  0.90306590    -0.71700
O1155       O  0.68219328  0.91289340  0.88773896    -0.71700
O1156       O  0.70089037  0.67170468  0.96419448    -0.71700
O1157       O  0.74189375  0.03458969  0.89040077    -0.71700
O1158       O  0.66498120  0.91504288  0.95760784    -0.71800
V1159       V  0.78865802  0.98097768  0.93650136     1.35200
V1160       V  0.70508899  0.97515009  0.92448305     1.35200
C1161       C  0.69555190  0.90020838  0.97739345     0.77600
C1162       C  0.76811803  0.68211158  0.88200606     0.77600
C1163       C  0.75610817  0.69800953  0.97692980     0.77500
C1164       C  0.71788072  0.89374202  0.88179466     0.77500
C1165       C  0.00057647  0.79851671  0.22462466     0.80300
N1166       N  0.98337632  0.75144196  0.24704169    -0.78000
C1167       C  0.99908278  0.70777795  0.24029501     0.82800
N1168       N  0.02984227  0.71163026  0.21061225    -0.77900
C1169       C  0.04253879  0.75485939  0.18691199     0.82900
N1170       N  0.02801156  0.79768173  0.19449550    -0.79600
O1171       O  0.99651484  0.71529956  0.05590020    -0.71700
O1172       O  0.91975564  0.91837882  0.12796327    -0.71900
O1173       O  0.99855769  0.73067804  0.12790062    -0.71700
O1174       O  0.92370336  0.90194228  0.05592446    -0.71700
O1175       O  0.68182766  0.91445345  0.06118633    -0.71700
O1176       O  0.73865890  0.71292678  0.13898697    -0.71700
O1177       O  0.66856517  0.91233310  0.13180419    -0.71700
O1178       O  0.74755766  0.71553455  0.06496439    -0.71800
V1179       V  0.95532639  0.97086135  0.09025240     1.35200
V1180       V  0.70501790  0.97392674  0.09871574     1.35200
C1181       C  0.71626897  0.73133832  0.04627314     0.77600
C1182       C  0.95157849  0.90098043  0.14419612     0.77600
C1183       C  0.04154221  0.73665751  0.14901310     0.77500
C1184       C  0.96169694  0.88788336  0.04564707     0.77500
N1185       N  0.66175788  0.84875005  0.99900549    -0.03300
C1186       C  0.66237873  0.79628759  0.99919676    -0.00800
C1187       C  0.60750447  0.75020555  0.01163138    -0.23600
C1188       C  0.91201109  0.77863271  0.02536877    -0.23900
C1189       C  0.61431197  0.84006951  0.01802302    -0.00900
H1190       H  0.59091697  0.70149748  0.01224095     0.12900
H1191       H  0.87401119  0.75836042  0.04254172     0.13000
N1192       N  0.73972316  0.76438700  0.01433852    -0.03300
C1193       C  0.71837209  0.79356514  0.99409611    -0.00800
C1194       C  0.75438552  0.81717626  0.96576297    -0.23600
C1195       C  0.79770888  0.80082734  0.96792157    -0.23900
C1196       C  0.78029749  0.75941054  0.99424123    -0.00900
H1197       H  0.74472879  0.83564315  0.94327188     0.12900
H1198       H  0.82458945  0.80289912  0.94579570     0.13000
C1199       C  0.64616812  0.65078150  0.26290827    -0.02400
N1200       N  0.85712957  0.07818641  0.52343333    -0.03300
C1201       C  0.91298701  0.08513251  0.52159928    -0.00800
C1202       C  0.91923518  0.78169157  0.49677938    -0.23600
C1203       C  0.88022932  0.79876281  0.48212537    -0.23900
C1204       C  0.82465004  0.76547863  0.49778273    -0.00900
H1205       H  0.96632501  0.79970441  0.49013040     0.12900
H1206       H  0.88901788  0.82612954  0.45933868     0.13000
loop_ 
_geom_bond_atom_site_label_1 
_geom_bond_atom_site_label_2 
_geom_bond_distance 
_geom_bond_site_symmetry_2 
_ccdc_geom_bond_type 
C1            N6   1.363       .  A
C1          N270   1.384       .  A
C1            C7   1.510   1_565  S
N2            C3   1.395       .  A
N2          C135   1.386       .  A
C3            N4   1.363       .  A
C3          C663   1.580       .  S
N4          C139   1.354       .  A
C5            N6   1.344       .  A
C5          N272   1.353       .  A
C5           C25   1.476       .  S
C7            N8   1.355       .  A
C7           N12   1.388   1_545  A
N8            C9   1.338       .  A
C9           N10   1.347       .  A
C9           C24   1.456       .  S
N10          C11   1.358       .  A
C11          N12   1.395   1_545  A
C11         C127   1.573   1_445  S
O13          C23   1.254       .  A
O13         V423   1.877       .  S
O14          C24   1.257       .  A
O14          V21   1.888       .  S
O15          C25   1.270   1_545  A
O15         V423   1.912       .  S
O16          C26   1.268       .  A
O16          V21   1.922       .  S
O17         C160   1.260       .  A
O17          V22   1.880       .  S
O18         C159   1.260       .  A
O18         V424   1.897       .  S
O19         C158   1.269       .  A
O19          V22   1.906       .  S
O20         C157   1.268       .  A
O20         V424   1.910       .  S
V21         O817   1.877   1_455  S
V21         O819   1.913   1_455  S
V21         V290   2.082   1_545  T
V22         O822   1.897   1_455  S
V22         O824   1.910   1_455  S
V22         V155   2.079       .  T
C23         O288   1.268   1_545  A
C23         N321   1.441       .  S
C24         O287   1.269       .  A
C25         O286   1.261       .  A
C26         C132   1.469       .  S
C26         O285   1.260       .  A
C27          N28   1.356       .  A
C27          N32   1.388       .  A
C27          C47   1.518       .  S
N28          C29   1.341       .  A
C29          N30   1.349       .  A
C29          C44   1.460       .  S
N30          C31   1.359       .  A
C31          N32   1.397       .  A
C31         C468   1.575       .  S
O33          C43   1.269       .  A
O33          V41   1.916       .  S
O34         C848   1.259   1_455  A
O34          V41   1.897       .  S
O35         C849   1.263       .  A
O35          V41   1.912   1_655  S
O36          C46   1.278       .  A
O36          V41   1.928       .  S
O37          C46   1.254       .  A
O37          V42   1.876       .  S
O38         C849   1.253   1_455  A
O38          V42   1.831       .  S
O39         C848   1.270       .  A
O39          V42   1.904   1_655  S
O40          C43   1.265       .  A
O40          V42   1.892       .  S
V41          V42   2.075       .  T
C43         N128   1.439       .  S
C44         O436   1.259       .  A
C44         O441   1.270       .  A
C45          C57   1.440       .  S
C45         O437   1.263       .  A
C45         O440   1.253       .  A
C46          C51   1.475       .  S
C47          N48   1.387       .  A
C47          N52   1.363       .  A
N48          C49   1.397       .  A
C49          N50   1.361       .  A
C49          C66   1.593       .  S
N50          C51   1.357       .  A
C51          N52   1.343       .  A
N53          C57   1.358       .  A
N53          C54   1.366       .  A
N53         C157   1.443       .  S
C54         C129   1.488       .  S
C54          C55   1.373       .  A
C55          C56   1.366       .  A
C55          H58   1.079       .  S
C56          C57   1.385       .  A
C56          H59   1.084       .  S
C60          N61   1.379       .  A
C60          N65   1.358       .  A
C60          C67   1.499       .  S
N61          C62   1.387       .  A
C62          N63   1.375       .  A
C62          C66   1.604       .  S
N63          C64   1.368   1_455  A
C64          N65   1.345   1_655  A
C64          C92   1.488       .  S
C66         C835   1.575   1_455  S
C66         C205   1.581       .  S
C67          N68   1.356       .  A
C67          N72   1.378       .  A
N68          C69   1.347       .  A
C69          N70   1.362       .  A
C69          C90   1.478       .  S
N70          C71   1.370       .  A
C71          N72   1.386       .  A
C71         C334   1.581   1_545  S
C73          N74   1.357       .  A
C73          N78   1.393       .  A
C73          C93   1.519       .  S
N74          C75   1.339       .  A
C75          N76   1.346       .  A
C75         C110   1.454       .  S
N76         C479   1.354       .  A
C77         N880   1.354       .  A
C77         N882   1.400       .  A
C77         C261   1.585       .  S
N78         C479   1.400       .  A
O79          C89   1.249   1_455  A
O79          V87   1.863       .  S
O80         C224   1.250       .  A
O80          V87   1.861       .  S
O81         C225   1.266       .  A
O81          V87   1.916       .  S
O82          C92   1.274   1_455  A
O82          V87   1.915       .  S
O83          C92   1.260       .  A
O83          V88   1.900       .  S
O84          C91   1.258       .  A
O84         V356   1.869   1_545  S
O85         C224   1.272   1_655  A
O85          V88   1.912       .  S
O86          C89   1.272       .  A
O86          V88   1.926       .  S
V87          V88   2.081   1_455  T
V88         O218   1.856       .  S
C89         N113   1.450   1_556  S
C90         O348   1.267       .  A
C90         O353   1.265       .  A
C91         C124   1.466   1_556  S
C91         O349   1.268       .  A
C93          N94   1.387       .  A
C93          N98   1.365       .  A
N94          C95   1.394       .  A
C95          N96   1.358       .  A
C95         C529   1.571   1_545  S
N96          C97   1.347       .  A
C97          N98   1.346       .  A
C97         C111   1.470       .  S
O99         C511   1.262       .  A
O99         V375   1.896   1_545  S
O100        C110   1.254       .  A
O100        V107   1.877       .  S
O101        C111   1.269       .  A
O101        V375   1.911   1_545  S
O102        C112   1.270       .  A
O102        V107   1.920       .  S
O103        C916   1.255       .  A
O103        V108   1.857   1_655  S
O104        C915   1.260       .  A
O104        V376   1.895   1_545  S
O105        C914   1.274       .  A
O105        V108   1.918   1_655  S
O106        C109   1.263       .  A
O106        V376   1.895   1_545  S
V107        O233   1.879       .  S
V107        O235   1.918       .  S
V107        V510   2.071       .  T
V108        O238   1.880       .  S
V108        O240   1.909       .  S
V108        V911   2.071   1_455  T
C109        O903   1.262   1_455  A
C109        N120   1.431       .  S
C110        O507   1.274       .  A
C111        O506   1.260       .  A
C112        C519   1.464       .  S
C112        O505   1.255       .  A
N113        C117   1.365       .  A
N113        C114   1.369   1_655  A
C114        C121   1.496       .  S
C114        C115   1.372   1_455  A
C115        C920   1.371       .  A
C115        H118   1.076   1_655  S
C116        C517   1.372       .  A
C116        C519   1.388       .  A
C116        H119   1.085       .  S
C117        C916   1.464       .  S
C117        C920   1.388       .  A
N120        C124   1.352       .  A
N120        C121   1.343       .  A
C121        C122   1.385       .  A
C122        C123   1.380   1_554  A
C122        H125   1.082       .  S
C123        C124   1.383   1_556  A
C123        H126   1.082       .  S
C127       C1075   1.573       .  S
C127        C345   1.571       .  S
C127        C899   1.571   1_665  S
N128        C129   1.347       .  A
N128        C266   1.355       .  A
C129        C264   1.385       .  A
C130        C131   1.383       .  A
C130        C397   1.386       .  A
C130        H133   1.080       .  S
C131        C132   1.383       .  A
C131        H134   1.082       .  S
C132        N396   1.352       .  A
C135        N140   1.360       .  A
C135        C141   1.516       .  S
N136        C269   1.387       .  A
N136        C137   1.393       .  A
C137        N138   1.363       .  A
C137        C797   1.580       .  S
N138        C273   1.353       .  A
C139        N140   1.343       .  A
C139        C159   1.471       .  S
C141        N142   1.358       .  A
C141        N146   1.386       .  A
N142        C143   1.342       .  A
C143        N144   1.351       .  A
C143        C158   1.463       .  S
N144        C145   1.360       .  A
C145        N146   1.396       .  A
C145        C261   1.576   1_455  S
O147        C157   1.255       .  A
O147        V557   1.884       .  S
O148        C158   1.259       .  A
O148        V155   1.894       .  S
O149        C159   1.271       .  A
O149        V557   1.910       .  S
O150        C160   1.269       .  A
O150        V155   1.924       .  S
O151        C294   1.260       .  A
O151        V156   1.874       .  S
O152        C293   1.260       .  A
O152        V558   1.899       .  S
O153        C292   1.268       .  A
O153        V156   1.903       .  S
O154        C291   1.267       .  A
O154        V558   1.910       .  S
V155        O951   1.884   1_455  S
V155        O953   1.910   1_455  S
V156        O956   1.899   1_455  S
V156        O958   1.910   1_455  S
V156        V289   2.083       .  T
C160        C266   1.469       .  S
C161        N162   1.351       .  A
C161        N166   1.390       .  A
C161        C181   1.506       .  S
N162        C163   1.336       .  A
C163        N164   1.346       .  A
C163        C178   1.452       .  S
N164        C165   1.359       .  A
C165        N166   1.395       .  A
C165        C602   1.573       .  S
O167        C177   1.269       .  A
O167        V175   1.913       .  S
O168        C982   1.258       .  A
O168        V175   1.895   1_655  S
O169        C983   1.264       .  A
O169        V175   1.916   1_655  S
O170        C180   1.278       .  A
O170        V175   1.935       .  S
O171        C180   1.256       .  A
O171        V176   1.881       .  S
O172        C983   1.255       .  A
O172        V176   1.834   1_655  S
O173        C982   1.268       .  A
O173        V176   1.894   1_655  S
O174        C177   1.262       .  A
O174        V176   1.885       .  S
V175        V176   2.081       .  T
C177        N262   1.435       .  S
C178        O570   1.258       .  A
C178        O575   1.268       .  A
C179        C191   1.445       .  S
C179        O571   1.264       .  A
C179        O574   1.255       .  A
C180        C185   1.482       .  S
C181        N182   1.383       .  A
C181        N186   1.371       .  A
N182        C183   1.387       .  A
C183        N184   1.359       .  A
C183        C200   1.567       .  S
N184        C185   1.349       .  A
C185        N186   1.347       .  A
N187        C191   1.361       .  A
N187        C188   1.363       .  A
N187        C291   1.442       .  S
C188        C263   1.488       .  S
C188        C189   1.371       .  A
C189        C190   1.366       .  A
C189        H192   1.077       .  S
C190        C191   1.385       .  A
C190        H193   1.085       .  S
C194        N195   1.393       .  A
C194        N199   1.368       .  A
C194        C201   1.534       .  S
N195        C196   1.401       .  A
C196        N197   1.358       .  A
C196        C200   1.576       .  S
N197        C198   1.345       .  A
C198        N199   1.342       .  A
C198        C226   1.475       .  S
C200        C969   1.573   1_455  S
C200        C339   1.577       .  S
C201        N202   1.356       .  A
C201        N206   1.400       .  A
N202        C203   1.332       .  A
C203        N204   1.334       .  A
C203        C224   1.437       .  S
N204        C205   1.345       .  A
C205        N206   1.409       .  A
C207        N208   1.362       .  A
C207        N212   1.385       .  A
C207        C227   1.521       .  S
N208        C209   1.344       .  A
C209        N210   1.341       .  A
C209        C244   1.462       .  S
N210        C613   1.355       .  A
C211       N1014   1.355       .  A
C211       N1016   1.396       .  A
C211        C395   1.557       .  S
N212        C613   1.396       .  A
O213        C223   1.270   1_455  A
O213        V221   1.917       .  S
O214        C358   1.266       .  A
O214        V221   1.911       .  S
O215        C359   1.265       .  A
O215        V221   1.914       .  S
O216        C226   1.273       .  A
O216        V221   1.917       .  S
O217        C226   1.261   1_655  A
O217        V222   1.894   1_655  S
O218        C225   1.254   1_655  A
O219        C358   1.263       .  A
O219        V222   1.886       .  S
O220        C223   1.259       .  A
O220        V222   1.873   1_655  S
V221        V222   2.072       .  T
V222        O352   1.857       .  S
C223        N247   1.430   1_556  S
C225        C258   1.446       .  S
C227        N228   1.392       .  A
C227        N232   1.356       .  A
N228        C229   1.401       .  A
C229        N230   1.363       .  A
C229        C663   1.595       .  S
N230        C231   1.354       .  A
C231        N232   1.335       .  A
C231        C245   1.466       .  S
O233        C645   1.256       .  A
O234        C244   1.263       .  A
O234        V241   1.902       .  S
O235        C245   1.276       .  A
O236        C246   1.263       .  A
O236        V241   1.906       .  S
O237       C1050   1.262   1_455  A
O237        V242   1.882       .  S
O238       C1049   1.255       .  A
O239       C1048   1.266       .  A
O239        V242   1.899   1_655  S
O240        C243   1.269   1_455  A
V241        O367   1.896       .  S
V241        O369   1.899       .  S
V241        V644   2.079       .  T
V242        O372   1.915       .  S
V242        O374   1.918       .  S
V242       V1045   2.079   1_455  T
C243       O1037   1.256       .  A
C243        N254   1.435   1_655  S
C244        O641   1.266       .  A
C245        O640   1.255       .  A
C246        C653   1.457       .  S
C246        O639   1.262       .  A
N247        C251   1.345       .  A
N247        C248   1.341       .  A
C248        C255   1.473   1_554  S
C248        C249   1.387       .  A
C249       C1054   1.379       .  A
C249        H252   1.077       .  S
C250        C651   1.379       .  A
C250        C653   1.381       .  A
C250        H253   1.083       .  S
C251       C1050   1.457       .  S
C251       C1054   1.381       .  A
N254        C258   1.355   1_554  A
N254        C255   1.357   1_454  A
C255        C256   1.374       .  A
C256        C257   1.364   1_655  A
C256        H259   1.079       .  S
C257        C258   1.384       .  A
C257        H260   1.083       .  S
C261        C807   1.580       .  S
C261       C1033   1.595       .  S
N262        C400   1.351       .  A
N262        C263   1.344       .  A
C263        C398   1.386       .  A
C264        C265   1.380       .  A
C264        H267   1.077       .  S
C265        C266   1.382       .  A
C265        H268   1.082       .  S
C269        N274   1.358       .  A
C269        C275   1.506       .  S
N270        C271   1.391       .  A
C271        N272   1.363       .  A
C271        C529   1.573       .  S
C273        N274   1.340       .  A
C273        C293   1.468       .  S
C275        N276   1.361       .  A
C275        N280   1.383       .  A
N276        C277   1.344       .  A
C277        N278   1.343       .  A
C277        C292   1.458       .  S
N278        C279   1.355       .  A
C279        N280   1.390       .  A
C279        C395   1.555   1_455  S
O281        C291   1.255       .  A
O281        V691   1.882       .  S
O282        C292   1.260       .  A
O282        V289   1.893       .  S
O283        C293   1.269       .  A
O283        V691   1.906       .  S
O284        C294   1.267       .  A
O284        V289   1.918       .  S
O285        V290   1.881   1_545  S
O286        V692   1.902       .  S
O287        V290   1.902   1_545  S
O288        V692   1.913       .  S
V289       O1085   1.882   1_455  S
V289       O1087   1.906   1_455  S
V290       O1090   1.902   1_455  S
V290       O1092   1.913   1_455  S
C294        C400   1.464       .  S
C295        N296   1.352       .  A
C295        N300   1.389       .  A
C295        C315   1.513       .  S
N296        C297   1.338       .  A
C297        N298   1.347       .  A
C297        C312   1.450       .  S
N298        C299   1.356       .  A
C299        N300   1.397       .  A
C299        C736   1.577       .  S
O301        C311   1.268   1_565  A
O301        V309   1.912       .  S
O302       C1116   1.256       .  A
O302        V309   1.891       .  S
O303       C1117   1.265   1_455  A
O303        V309   1.918       .  S
O304        C314   1.279       .  A
O304        V309   1.936       .  S
O305        C314   1.254   1_545  A
O305        V310   1.876       .  S
O306       C1117   1.252   1_445  A
O306        V310   1.827       .  S
O307       C1116   1.269       .  A
O307        V310   1.896   1_565  S
O308        C311   1.263       .  A
O308        V310   1.884       .  S
V309        V310   2.082   1_565  T
C311        N396   1.433       .  S
C312        O704   1.256       .  A
C312        O709   1.269       .  A
C313        C325   1.443       .  S
C313        O705   1.265       .  A
C313        O708   1.253   1_565  A
C314        C319   1.481       .  S
C315        N316   1.386       .  A
C315        N320   1.369       .  A
N316        C317   1.392       .  A
C317        N318   1.360       .  A
C317        C334   1.577       .  S
N318        C319   1.352       .  A
C319        N320   1.345       .  A
N321        C325   1.359   1_545  A
N321        C322   1.363       .  A
C322        C397   1.487       .  S
C322        C323   1.372       .  A
C323        C324   1.368   1_545  A
C323        H326   1.079       .  S
C324        C325   1.386       .  A
C324        H327   1.085       .  S
C328        N329   1.387       .  A
C328        N333   1.369       .  A
C328        C335   1.520       .  S
N329        C330   1.393       .  A
C330        N331   1.349       .  A
C330        C334   1.560       .  S
N331        C332   1.341       .  A
C332        N333   1.349       .  A
C332        C360   1.463       .  S
C334       C1103   1.577       .  S
C335        N336   1.356       .  A
C335        N340   1.391       .  A
N336        C337   1.344       .  A
C337        N338   1.348       .  A
C337        C358   1.461       .  S
N338        C339   1.361       .  A
C339        N340   1.397       .  A
C341        N342   1.355       .  A
C341        N346   1.382       .  A
C341        C361   1.496       .  S
N342        C343   1.341       .  A
C343        N344   1.354       .  A
C343        C378   1.461       .  S
N344        C747   1.363       .  A
C345       N1148   1.363       .  A
C345       N1150   1.388       .  A
N346        C747   1.388       .  A
O347        C357   1.268       .  A
O347        V355   1.922       .  S
O348        V355   1.923   1_545  S
O349        V355   1.928   1_545  S
O350        C360   1.268       .  A
O350        V355   1.913       .  S
O351        C360   1.260       .  A
O351        V356   1.888       .  S
O352        C359   1.259       .  A
O353        V356   1.890   1_545  S
O354        C357   1.262   1_655  A
O354        V356   1.884   1_655  S
V355        V356   2.083       .  T
C357        N381   1.440   1_455  S
C359        C392   1.457       .  S
C361        N362   1.378       .  A
C361        N366   1.362       .  A
N362        C363   1.383       .  A
C363        N364   1.368       .  A
C363        C797   1.566       .  S
N364        C365   1.357       .  A
C365        N366   1.347       .  A
C365        C379   1.480       .  S
O367        C779   1.259       .  A
O368        C378   1.260       .  A
O368        V375   1.898       .  S
O369        C379   1.266       .  A
O370        C380   1.263       .  A
O370        V375   1.912       .  S
O371       C1184   1.259   1_455  A
O371        V376   1.862       .  S
O372       C1183   1.266       .  A
O373       C1182   1.267   1_455  A
O373        V376   1.895       .  S
O374        C377   1.269       .  A
V375        V778   2.084       .  T
V376       V1179   2.083   1_455  T
C377       O1171   1.259   1_455  A
C377        N388   1.457       .  S
C378        O775   1.267       .  A
C379        O774   1.266       .  A
C380        C787   1.453       .  S
C380        O773   1.259       .  A
N381        C385   1.349   1_556  A
N381        C382   1.344       .  A
C382        C389   1.482   1_655  S
C382        C383   1.384   1_556  A
C383       C1188   1.375       .  A
C383        H386   1.081       .  S
C384        C785   1.374       .  A
C384        C787   1.378       .  A
C384        H387   1.082       .  S
C385       C1184   1.453       .  S
C385       C1188   1.378       .  A
N388        C392   1.359   1_554  A
N388        C389   1.367   1_554  A
C389        C390   1.375       .  A
C390        C391   1.369       .  A
C390        H393   1.067       .  S
C391        C392   1.385       .  A
C391        H394   1.085       .  S
C395        C941   1.579       .  S
C395       C1167   1.566       .  S
N396        C397   1.342       .  A
C398        C399   1.383       .  A
C398        H401   1.079       .  S
C399        C400   1.382       .  A
C399        H402   1.083       .  S
C403        N672   1.384       .  A
C403        N408   1.363       .  A
C403        C409   1.510   1_565  S
N404        C537   1.386       .  A
N404        C405   1.395       .  A
C405        N406   1.363       .  A
C405       C1065   1.580       .  S
N406        C541   1.354       .  A
C407        N674   1.353       .  A
C407        N408   1.344       .  A
C407        C427   1.476       .  S
C409        N410   1.355       .  A
C409        N414   1.388   1_545  A
N410        C411   1.338       .  A
C411        N412   1.347       .  A
C411        C426   1.456       .  S
N412        C413   1.358       .  A
C413        N414   1.395   1_545  A
C413        C529   1.573   1_545  S
O415        C425   1.254       .  A
O415        V825   1.877       .  S
O416        C426   1.257       .  A
O416        V423   1.888       .  S
O417        C427   1.270   1_545  A
O417        V825   1.913       .  S
O418        C428   1.268       .  A
O418        V423   1.922       .  S
O419        C562   1.260       .  A
O419        V424   1.880       .  S
O420        C561   1.260       .  A
O420        V826   1.897       .  S
O421        C560   1.269       .  A
O421        V424   1.906       .  S
O422        C559   1.268       .  A
O422        V826   1.910       .  S
V423        V692   2.082   1_545  T
V424        V557   2.079       .  T
C425        O690   1.268   1_545  A
C425        N723   1.441       .  S
C426        O689   1.269       .  A
C427        O688   1.261       .  A
C428        C534   1.469       .  S
C428        O687   1.260       .  A
C429        N430   1.356       .  A
C429        N434   1.388       .  A
C429        C449   1.518       .  S
N430        C431   1.341       .  A
C431        N432   1.349       .  A
C431        C446   1.460       .  S
N432        C433   1.359       .  A
C433        N434   1.397       .  A
C433        C870   1.575       .  S
O435        C445   1.269       .  A
O435        V443   1.916       .  S
O436        V443   1.897       .  S
O437        V443   1.912       .  S
O438        C448   1.278       .  A
O438        V443   1.928       .  S
O439        C448   1.254       .  A
O439        V444   1.876       .  S
O440        V444   1.831       .  S
O441        V444   1.904       .  S
O442        C445   1.265       .  A
O442        V444   1.892       .  S
V443        V444   2.075       .  T
C445        N530   1.439       .  S
C446        O838   1.259       .  A
C446        O843   1.270       .  A
C447        C459   1.440       .  S
C447        O839   1.263       .  A
C447        O842   1.253       .  A
C448        C453   1.475       .  S
C449        N450   1.387       .  A
C449        N454   1.363       .  A
N450        C451   1.397       .  A
C451        N452   1.361       .  A
C451        C468   1.593       .  S
N452        C453   1.357       .  A
C453        N454   1.343       .  A
N455        C459   1.358       .  A
N455        C456   1.365       .  A
N455        C559   1.443       .  S
C456        C531   1.488       .  S
C456        C457   1.373       .  A
C457        C458   1.366       .  A
C457        H460   1.079       .  S
C458        C459   1.385       .  A
C458        H461   1.084       .  S
C462        N463   1.379       .  A
C462        N467   1.358       .  A
C462        C469   1.499       .  S
N463        C464   1.387       .  A
C464        N465   1.374       .  A
C464        C468   1.604       .  S
N465        C466   1.368       .  A
C466        N467   1.345       .  A
C466        C494   1.488       .  S
C468        C607   1.581       .  S
C469        N470   1.356       .  A
C469        N474   1.377       .  A
N470        C471   1.347       .  A
C471        N472   1.362       .  A
C471        C492   1.478       .  S
N472        C473   1.370       .  A
C473        N474   1.386       .  A
C473        C736   1.581   1_545  S
C475        N476   1.357       .  A
C475        N480   1.392       .  A
C475        C495   1.519       .  S
N476        C477   1.339       .  A
C477        N478   1.346       .  A
C477        C512   1.454       .  S
N478        C881   1.354       .  A
C479        C663   1.585       .  S
N480        C881   1.400       .  A
O481        C491   1.249       .  A
O481        V489   1.863       .  S
O482        C626   1.250       .  A
O482        V489   1.861       .  S
O483        C627   1.266       .  A
O483        V489   1.916       .  S
O484        C494   1.274       .  A
O484        V489   1.915       .  S
O485        C494   1.260       .  A
O485        V490   1.900       .  S
O486        C493   1.258       .  A
O486        V758   1.869   1_545  S
O487        C626   1.272       .  A
O487        V490   1.912       .  S
O488        C491   1.272       .  A
O488        V490   1.926       .  S
V489        V490   2.081       .  T
V490        O620   1.856       .  S
C491        N515   1.450   1_556  S
C492        O750   1.267       .  A
C492        O755   1.265       .  A
C493        C526   1.466   1_556  S
C493        O751   1.268       .  A
C495        N496   1.387       .  A
C495        N500   1.365       .  A
N496        C497   1.394       .  A
C497        N498   1.358       .  A
C497        C931   1.571   1_545  S
N498        C499   1.348       .  A
C499        N500   1.346       .  A
C499        C513   1.470       .  S
O501        C913   1.262       .  A
O501        V777   1.896   1_545  S
O502        C512   1.254       .  A
O502        V509   1.877       .  S
O503        C513   1.269       .  A
O503        V777   1.911   1_545  S
O504        C514   1.270       .  A
O504        V509   1.920       .  S
O505        V510   1.857       .  S
O506        V778   1.895   1_545  S
O507        V510   1.918       .  S
O508        C511   1.263       .  A
O508        V778   1.895   1_545  S
V509        O635   1.879       .  S
V509        O637   1.918       .  S
V509        V912   2.071       .  T
V510        O640   1.880       .  S
V510        O642   1.908       .  S
C511        N522   1.431       .  S
C512        O909   1.274       .  A
C513        O908   1.260       .  A
C514        C921   1.464       .  S
C514        O907   1.255       .  A
N515        C519   1.364       .  A
N515        C516   1.369       .  A
C516        C523   1.496       .  S
C516        C517   1.372       .  A
C517        H520   1.075       .  S
C518        C919   1.372       .  A
C518        C921   1.388       .  A
C518        H521   1.085       .  S
N522        C526   1.352       .  A
N522        C523   1.343       .  A
C523        C524   1.385       .  A
C524        C525   1.381   1_554  A
C524        H527   1.082       .  S
C525        C526   1.383   1_556  A
C525        H528   1.082       .  S
C529        C747   1.571       .  S
N530        C668   1.355       .  A
N530        C531   1.346       .  A
C531        C666   1.385       .  A
C532        C799   1.386       .  A
C532        C533   1.383       .  A
C532        H535   1.080       .  S
C533        C534   1.383       .  A
C533        H536   1.081       .  S
C534        N798   1.352       .  A
C537        N542   1.360       .  A
C537        C543   1.515       .  S
N538        C671   1.387       .  A
N538        C539   1.393       .  A
C539        N540   1.363       .  A
C539       C1199   1.579       .  S
N540        C675   1.352       .  A
C541        N542   1.343       .  A
C541        C561   1.471       .  S
C543        N544   1.358       .  A
C543        N548   1.386       .  A
N544        C545   1.342       .  A
C545        N546   1.351       .  A
C545        C560   1.463       .  S
N546        C547   1.360       .  A
C547        N548   1.396       .  A
C547        C663   1.576       .  S
O549        C559   1.254       .  A
O549        V959   1.884       .  S
O550        C560   1.259       .  A
O550        V557   1.894       .  S
O551        C561   1.271       .  A
O551        V959   1.910       .  S
O552        C562   1.269       .  A
O552        V557   1.924       .  S
O553        C696   1.260       .  A
O553        V558   1.874       .  S
O554        C695   1.260       .  A
O554        V960   1.899       .  S
O555        C694   1.268       .  A
O555        V558   1.903       .  S
O556        C693   1.267       .  A
O556        V960   1.910       .  S
V558        V691   2.083       .  T
C562        C668   1.470       .  S
C563        N564   1.351       .  A
C563        N568   1.390       .  A
C563        C583   1.506       .  S
N564        C565   1.336       .  A
C565        N566   1.346       .  A
C565        C580   1.452       .  S
N566        C567   1.359       .  A
C567        N568   1.395       .  A
C567       C1004   1.573       .  S
O569        C579   1.269       .  A
O569        V577   1.913       .  S
O570        V577   1.895       .  S
O571        V577   1.916       .  S
O572        C582   1.278       .  A
O572        V577   1.935       .  S
O573        C582   1.256       .  A
O573        V578   1.880       .  S
O574        V578   1.834       .  S
O575        V578   1.894       .  S
O576        C579   1.262       .  A
O576        V578   1.884       .  S
V577        V578   2.081       .  T
C579        N664   1.435       .  S
C580        O972   1.258       .  A
C580        O977   1.268       .  A
C581        C593   1.445       .  S
C581        O973   1.264       .  A
C581        O976   1.255       .  A
C582        C587   1.482       .  S
C583        N584   1.383       .  A
C583        N588   1.371       .  A
N584        C585   1.387       .  A
C585        N586   1.359       .  A
C585        C602   1.567       .  S
N586        C587   1.349       .  A
C587        N588   1.347       .  A
N589        C593   1.361       .  A
N589        C590   1.363       .  A
N589        C693   1.442       .  S
C590        C665   1.488       .  S
C590        C591   1.371       .  A
C591        C592   1.366       .  A
C591        H594   1.077       .  S
C592        C593   1.385       .  A
C592        H595   1.085       .  S
C596        N597   1.393       .  A
C596        N601   1.368       .  A
C596        C603   1.534       .  S
N597        C598   1.401       .  A
C598        N599   1.358       .  A
C598        C602   1.576       .  S
N599        C600   1.345       .  A
C600        N601   1.342       .  A
C600        C628   1.475       .  S
C602        C741   1.577       .  S
C603        N604   1.356       .  A
C603        N608   1.400       .  A
N604        C605   1.332       .  A
C605        N606   1.334       .  A
C605        C626   1.437       .  S
N606        C607   1.345       .  A
C607        N608   1.409       .  A
C609        N610   1.362       .  A
C609        N614   1.385       .  A
C609        C629   1.521       .  S
N610        C611   1.344       .  A
C611        N612   1.341       .  A
C611        C646   1.462       .  S
N612       C1015   1.355       .  A
C613        C797   1.557       .  S
N614       C1015   1.396       .  A
O615        C625   1.270       .  A
O615        V623   1.917       .  S
O616        C760   1.266       .  A
O616        V623   1.911       .  S
O617        C761   1.265       .  A
O617        V623   1.914       .  S
O618        C628   1.273       .  A
O618        V623   1.917       .  S
O619        C628   1.261       .  A
O619        V624   1.894       .  S
O620        C627   1.254       .  A
O621        C760   1.263       .  A
O621        V624   1.886       .  S
O622        C625   1.259       .  A
O622        V624   1.873       .  S
V623        V624   2.072       .  T
V624        O754   1.857       .  S
C625        N649   1.430   1_556  S
C627        C660   1.446       .  S
C629        N630   1.392       .  A
C629        N634   1.356       .  A
N630        C631   1.401       .  A
C631        N632   1.363       .  A
C631       C1065   1.595       .  S
N632        C633   1.354       .  A
C633        N634   1.334       .  A
C633        C647   1.466       .  S
O635       C1047   1.256       .  A
O636        C646   1.263       .  A
O636        V643   1.902       .  S
O637        C647   1.276       .  A
O638        C648   1.263       .  A
O638        V643   1.906       .  S
O639        V644   1.882       .  S
O641        V644   1.899       .  S
O642        C645   1.269       .  A
V643        O769   1.896       .  S
V643        O771   1.899       .  S
V643       V1046   2.079       .  T
V644        O774   1.915       .  S
V644        O776   1.918       .  S
C645        N656   1.435       .  S
C646       O1043   1.266       .  A
C647       O1042   1.255       .  A
C648       C1055   1.457       .  S
C648       O1041   1.262       .  A
N649        C653   1.345       .  A
N649        C650   1.341       .  A
C650        C657   1.473   1_554  S
C650        C651   1.387       .  A
C651        H654   1.077       .  S
C652       C1053   1.379       .  A
C652       C1055   1.381       .  A
C652        H655   1.083       .  S
N656        C660   1.355   1_554  A
N656        C657   1.357   1_554  A
C657        C658   1.374       .  A
C658        C659   1.364       .  A
C658        H661   1.079       .  S
C659        C660   1.384       .  A
C659        H662   1.083       .  S
N664        C802   1.351       .  A
N664        C665   1.344       .  A
C665        C800   1.386       .  A
C666        C667   1.381       .  A
C666        H669   1.077       .  S
C667        C668   1.382       .  A
C667        H670   1.082       .  S
C671        N676   1.358       .  A
C671        C677   1.506       .  S
N672        C673   1.391       .  A
C673        N674   1.363       .  A
C673        C931   1.573       .  S
C675        N676   1.340       .  A
C675        C695   1.468       .  S
C677        N678   1.361       .  A
C677        N682   1.383       .  A
N678        C679   1.343       .  A
C679        N680   1.343       .  A
C679        C694   1.458       .  S
N680        C681   1.355       .  A
C681        N682   1.390       .  A
C681        C797   1.555       .  S
O683        C693   1.255       .  A
O683       V1093   1.882       .  S
O684        C694   1.260       .  A
O684        V691   1.893       .  S
O685        C695   1.269       .  A
O685       V1093   1.906       .  S
O686        C696   1.267       .  A
O686        V691   1.918       .  S
O687        V692   1.881   1_545  S
O688       V1094   1.902       .  S
O689        V692   1.902   1_545  S
O690       V1094   1.913       .  S
C696        C802   1.464       .  S
C697        N698   1.352       .  A
C697        N702   1.389       .  A
C697        C717   1.513       .  S
N698        C699   1.338       .  A
C699        N700   1.347       .  A
C699        C714   1.450       .  S
N700        C701   1.356       .  A
C701        N702   1.397       .  A
C701       C1138   1.577       .  S
O703        C713   1.268   1_565  A
O703        V711   1.912       .  S
O704        V711   1.891       .  S
O705        V711   1.918       .  S
O706        C716   1.279       .  A
O706        V711   1.936       .  S
O707        C716   1.254   1_545  A
O707        V712   1.876       .  S
O708        V712   1.827       .  S
O709        V712   1.896   1_565  S
O710        C713   1.263       .  A
O710        V712   1.884       .  S
V711        V712   2.082   1_565  T
C713        N798   1.433       .  S
C714       O1106   1.256       .  A
C714       O1111   1.269       .  A
C715        C727   1.443       .  S
C715       O1107   1.265       .  A
C715       O1110   1.252   1_565  A
C716        C721   1.481       .  S
C717        N718   1.386       .  A
C717        N722   1.370       .  A
N718        C719   1.391       .  A
C719        N720   1.360       .  A
C719        C736   1.577       .  S
N720        C721   1.352       .  A
C721        N722   1.345       .  A
N723        C727   1.359   1_545  A
N723        C724   1.363       .  A
C724        C799   1.487       .  S
C724        C725   1.372       .  A
C725        C726   1.368   1_545  A
C725        H728   1.079       .  S
C726        C727   1.386       .  A
C726        H729   1.085       .  S
C730        N731   1.387       .  A
C730        N735   1.369       .  A
C730        C737   1.520       .  S
N731        C732   1.393       .  A
C732        N733   1.349       .  A
C732        C736   1.559       .  S
N733        C734   1.341       .  A
C734        N735   1.349       .  A
C734        C762   1.463       .  S
C737        N738   1.356       .  A
C737        N742   1.391       .  A
N738        C739   1.344       .  A
C739        N740   1.348       .  A
C739        C760   1.461       .  S
N740        C741   1.361       .  A
C741        N742   1.397       .  A
C743        N744   1.355       .  A
C743        N748   1.382       .  A
C743        C763   1.496       .  S
N744        C745   1.341       .  A
C745        N746   1.354       .  A
C745        C780   1.461       .  S
N746       C1149   1.363       .  A
N748       C1149   1.388       .  A
O749        C759   1.268       .  A
O749        V757   1.922       .  S
O750        V757   1.923   1_545  S
O751        V757   1.928   1_545  S
O752        C762   1.268       .  A
O752        V757   1.913       .  S
O753        C762   1.260       .  A
O753        V758   1.888       .  S
O754        C761   1.259       .  A
O755        V758   1.890   1_545  S
O756        C759   1.262       .  A
O756        V758   1.884       .  S
V757        V758   2.083       .  T
C759        N783   1.440       .  S
C761        C794   1.457       .  S
C763        N764   1.378       .  A
C763        N768   1.362       .  A
N764        C765   1.383       .  A
C765        N766   1.368       .  A
C765       C1199   1.566       .  S
N766        C767   1.357       .  A
C767        N768   1.347       .  A
C767        C781   1.480       .  S
O769       C1181   1.259       .  A
O770        C780   1.260       .  A
O770        V777   1.898       .  S
O771        C781   1.266       .  A
O772        C782   1.263       .  A
O772        V777   1.912       .  S
O773        V778   1.862       .  S
O775        V778   1.895       .  S
O776        C779   1.269       .  A
V777       V1180   2.083       .  T
C779        N790   1.457       .  S
C780       O1177   1.267       .  A
C781       O1176   1.266       .  A
C782       C1189   1.453       .  S
C782       O1175   1.259       .  A
N783        C787   1.349   1_556  A
N783        C784   1.344       .  A
C784        C791   1.482       .  S
C784        C785   1.384   1_556  A
C785        H788   1.081       .  S
C786       C1187   1.375       .  A
C786       C1189   1.378       .  A
C786        H789   1.082       .  S
N790        C794   1.359   1_554  A
N790        C791   1.367   1_554  A
C791        C792   1.375       .  A
C792        C793   1.369       .  A
C792        H795   1.067       .  S
C793        C794   1.385       .  A
C793        H796   1.085       .  S
N798        C799   1.342       .  A
C800        C801   1.383       .  A
C800        H803   1.079       .  S
C801        C802   1.382       .  A
C801        H804   1.083       .  S
C805       N1074   1.384       .  A
C805        N810   1.363       .  A
C805        C811   1.510   1_565  S
N806        C939   1.386       .  A
N806        C807   1.395       .  A
C807        N808   1.363       .  A
N808        C943   1.354       .  A
C809       N1076   1.353       .  A
C809        N810   1.344       .  A
C809        C829   1.476       .  S
C811        N812   1.355       .  A
C811        N816   1.388   1_545  A
N812        C813   1.338       .  A
C813        N814   1.347       .  A
C813        C828   1.456       .  S
N814        C815   1.358       .  A
C815        N816   1.395   1_545  A
C815        C931   1.573   1_545  S
O817        C827   1.254       .  A
O818        C828   1.257       .  A
O818        V825   1.888       .  S
O819        C829   1.270   1_545  A
O820        C830   1.268       .  A
O820        V825   1.922       .  S
O821        C964   1.260       .  A
O821        V826   1.880       .  S
O822        C963   1.260       .  A
O823        C962   1.269       .  A
O823        V826   1.906       .  S
O824        C961   1.268       .  A
V825       V1094   2.082   1_545  T
V826        V959   2.079       .  T
C827       O1092   1.268   1_545  A
C827       N1125   1.441       .  S
C828       O1091   1.269       .  A
C829       O1090   1.261       .  A
C830        C936   1.469       .  S
C830       O1089   1.260       .  A
C831        N832   1.356       .  A
C831        N836   1.388       .  A
C831        C851   1.518       .  S
N832        C833   1.341       .  A
C833        N834   1.349       .  A
C833        C848   1.460       .  S
N834        C835   1.359       .  A
C835        N836   1.397       .  A
O837        C847   1.269       .  A
O837        V845   1.916       .  S
O838        V845   1.897       .  S
O839        V845   1.912       .  S
O840        C850   1.278       .  A
O840        V845   1.928       .  S
O841        C850   1.254       .  A
O841        V846   1.876       .  S
O842        V846   1.831       .  S
O843        V846   1.904       .  S
O844        C847   1.265       .  A
O844        V846   1.892       .  S
V845        V846   2.075       .  T
C847        N932   1.439       .  S
C849        C861   1.440       .  S
C850        C855   1.475       .  S
C851        N852   1.387       .  A
C851        N856   1.363       .  A
N852        C853   1.397       .  A
C853        N854   1.361       .  A
C853        C870   1.593       .  S
N854        C855   1.357       .  A
C855        N856   1.343       .  A
N857        C861   1.358       .  A
N857        C858   1.365       .  A
N857        C961   1.443       .  S
C858        C933   1.488       .  S
C858        C859   1.373       .  A
C859        C860   1.366       .  A
C859        H862   1.079       .  S
C860        C861   1.385       .  A
C860        H863   1.084       .  S
C864        N865   1.379       .  A
C864        N869   1.358       .  A
C864        C871   1.498       .  S
N865        C866   1.387       .  A
C866        N867   1.375       .  A
C866        C870   1.604       .  S
N867        C868   1.368       .  A
C868        N869   1.345       .  A
C868        C896   1.488       .  S
C870       C1009   1.581       .  S
C871        N872   1.356       .  A
C871        N876   1.377       .  A
N872        C873   1.347       .  A
C873        N874   1.362       .  A
C873        C894   1.478       .  S
N874        C875   1.370       .  A
C875        N876   1.386       .  A
C875       C1138   1.581   1_545  S
C877        N878   1.357       .  A
C877        N882   1.392       .  A
C877        C897   1.519   1_655  S
N878        C879   1.339       .  A
C879        N880   1.346       .  A
C879        C914   1.454       .  S
C881       C1065   1.585       .  S
O883        C893   1.249       .  A
O883        V891   1.863       .  S
O884       C1028   1.249       .  A
O884        V891   1.861       .  S
O885       C1029   1.266       .  A
O885        V891   1.916       .  S
O886        C896   1.274       .  A
O886        V891   1.915       .  S
O887        C896   1.260       .  A
O887        V892   1.900       .  S
O888        C895   1.258       .  A
O888       V1160   1.869   1_545  S
O889       C1028   1.272       .  A
O889        V892   1.912       .  S
O890        C893   1.272       .  A
O890        V892   1.926       .  S
V891        V892   2.081       .  T
V892       O1022   1.856       .  S
C893        N917   1.450   1_556  S
C894       O1152   1.267       .  A
C894       O1157   1.265       .  A
C895        C928   1.466   1_556  S
C895       O1153   1.268       .  A
C897        N898   1.387   1_455  A
C897        N902   1.365       .  A
N898        C899   1.394   1_655  A
C899        N900   1.358       .  A
N900        C901   1.347       .  A
C901        N902   1.346       .  A
C901        C915   1.470       .  S
O903       V1179   1.896   1_545  S
O904        C914   1.254       .  A
O904        V911   1.877       .  S
O905        C915   1.269   1_655  A
O905       V1179   1.911   1_545  S
O906        C916   1.270       .  A
O906        V911   1.920       .  S
O907        V912   1.857       .  S
O908       V1180   1.895   1_545  S
O909        V912   1.918       .  S
O910        C913   1.263       .  A
O910       V1180   1.895   1_545  S
V911       O1037   1.879       .  S
V911       O1039   1.918       .  S
V912       O1042   1.880       .  S
V912       O1044   1.908       .  S
C913        N924   1.431       .  S
N917        C921   1.365       .  A
N917        C918   1.369       .  A
C918        C925   1.496       .  S
C918        C919   1.372       .  A
C919        H922   1.076       .  S
C920        H923   1.085       .  S
N924        C928   1.352       .  A
N924        C925   1.343       .  A
C925        C926   1.385       .  A
C926        C927   1.381   1_554  A
C926        H929   1.082       .  S
C927        C928   1.383   1_556  A
C927        H930   1.082       .  S
C931       C1149   1.571       .  S
N932       C1070   1.355       .  A
N932        C933   1.347       .  A
C933       C1068   1.385       .  A
C934       C1201   1.386       .  A
C934        C935   1.383       .  A
C934        H937   1.079       .  S
C935        C936   1.383       .  A
C935        H938   1.082       .  S
C936       N1200   1.352       .  A
C939        N944   1.360       .  A
C939        C945   1.516       .  S
N940       C1073   1.387       .  A
N940        C941   1.393       .  A
C941        N942   1.363       .  A
N942       C1077   1.353       .  A
C943        N944   1.343       .  A
C943        C963   1.471       .  S
C945        N946   1.358       .  A
C945        N950   1.386       .  A
N946        C947   1.342       .  A
C947        N948   1.351       .  A
C947        C962   1.463       .  S
N948        C949   1.360       .  A
C949        N950   1.396       .  A
C949       C1065   1.576       .  S
O951        C961   1.255       .  A
O952        C962   1.259       .  A
O952        V959   1.894       .  S
O953        C963   1.271       .  A
O954        C964   1.269       .  A
O954        V959   1.924       .  S
O955       C1098   1.260       .  A
O955        V960   1.874       .  S
O956       C1097   1.260       .  A
O957       C1096   1.268       .  A
O957        V960   1.903       .  S
O958       C1095   1.267       .  A
V960       V1093   2.083       .  T
C964       C1070   1.469       .  S
C965        N966   1.351       .  A
C965        N970   1.390       .  A
C965        C985   1.506       .  S
N966        C967   1.336       .  A
C967        N968   1.346       .  A
C967        C982   1.452       .  S
N968        C969   1.359       .  A
C969        N970   1.394       .  A
O971        C981   1.269       .  A
O971        V979   1.913       .  S
O972        V979   1.895       .  S
O973        V979   1.916       .  S
O974        C984   1.278       .  A
O974        V979   1.935       .  S
O975        C984   1.256       .  A
O975        V980   1.881       .  S
O976        V980   1.834       .  S
O977        V980   1.894       .  S
O978        C981   1.262       .  A
O978        V980   1.885       .  S
V979        V980   2.081       .  T
C981       N1066   1.435       .  S
C983        C995   1.445       .  S
C984        C989   1.482       .  S
C985        N986   1.383       .  A
C985        N990   1.371       .  A
N986        C987   1.387       .  A
C987        N988   1.359       .  A
C987       C1004   1.567       .  S
N988        C989   1.349       .  A
C989        N990   1.347       .  A
N991        C995   1.361       .  A
N991        C992   1.363       .  A
N991       C1095   1.442       .  S
C992       C1067   1.488       .  S
C992        C993   1.371       .  A
C993        C994   1.367       .  A
C993        H996   1.077       .  S
C994        C995   1.385       .  A
C994        H997   1.085       .  S
C998        N999   1.393       .  A
C998       N1003   1.368       .  A
C998       C1005   1.534       .  S
N999       C1000   1.401       .  A
C1000      N1001   1.358       .  A
C1000      C1004   1.576       .  S
N1001      C1002   1.345       .  A
C1002      N1003   1.342       .  A
C1002      C1030   1.475       .  S
C1004      C1143   1.577       .  S
C1005      N1006   1.356       .  A
C1005      N1010   1.400       .  A
N1006      C1007   1.332       .  A
C1007      N1008   1.334       .  A
C1007      C1028   1.437       .  S
N1008      C1009   1.345       .  A
C1009      N1010   1.409       .  A
C1011      N1012   1.362       .  A
C1011      N1016   1.385       .  A
C1011      C1031   1.521       .  S
N1012      C1013   1.344       .  A
C1013      N1014   1.341       .  A
C1013      C1048   1.462       .  S
C1015      C1199   1.557       .  S
O1017      C1027   1.270       .  A
O1017      V1025   1.917       .  S
O1018      C1162   1.266       .  A
O1018      V1025   1.911       .  S
O1019      C1163   1.265       .  A
O1019      V1025   1.914       .  S
O1020      C1030   1.273       .  A
O1020      V1025   1.917       .  S
O1021      C1030   1.261       .  A
O1021      V1026   1.894       .  S
O1022      C1029   1.254       .  A
O1023      C1162   1.263       .  A
O1023      V1026   1.886       .  S
O1024      C1027   1.259       .  A
O1024      V1026   1.873       .  S
V1025      V1026   2.072       .  T
V1026      O1156   1.857       .  S
C1027      N1051   1.430   1_556  S
C1029      C1062   1.446       .  S
C1031      N1032   1.392       .  A
C1031      N1036   1.356       .  A
N1032      C1033   1.401       .  A
C1033      N1034   1.363   1_655  A
N1034      C1035   1.354       .  A
C1035      N1036   1.335   1_455  A
C1035      C1049   1.466       .  S
O1038      C1048   1.263       .  A
O1038      V1045   1.902       .  S
O1039      C1049   1.276   1_655  A
O1040      C1050   1.263       .  A
O1040      V1045   1.906       .  S
O1041      V1046   1.882       .  S
O1043      V1046   1.899       .  S
O1044      C1047   1.269       .  A
V1045      O1171   1.896       .  S
V1045      O1173   1.899       .  S
V1046      O1176   1.915       .  S
V1046      O1178   1.918       .  S
C1047      N1058   1.435       .  S
N1051      C1055   1.345       .  A
N1051      C1052   1.341       .  A
C1052      C1059   1.473   1_554  S
C1052      C1053   1.387       .  A
C1053      H1056   1.077       .  S
C1054      H1057   1.083       .  S
N1058      C1062   1.355   1_554  A
N1058      C1059   1.356   1_554  A
C1059      C1060   1.374       .  A
C1060      C1061   1.364       .  A
C1060      H1063   1.079       .  S
C1061      C1062   1.384       .  A
C1061      H1064   1.083       .  S
N1066      C1204   1.351       .  A
N1066      C1067   1.344       .  A
C1067      C1202   1.386       .  A
C1068      C1069   1.380       .  A
C1068      H1071   1.077       .  S
C1069      C1070   1.382       .  A
C1069      H1072   1.082       .  S
C1073      N1078   1.358       .  A
C1073      C1079   1.506       .  S
N1074      C1075   1.391       .  A
C1075      N1076   1.363       .  A
C1077      N1078   1.340       .  A
C1077      C1097   1.468       .  S
C1079      N1080   1.361       .  A
C1079      N1084   1.383       .  A
N1080      C1081   1.344       .  A
C1081      N1082   1.343       .  A
C1081      C1096   1.458       .  S
N1082      C1083   1.355       .  A
C1083      N1084   1.390       .  A
C1083      C1199   1.555       .  S
O1085      C1095   1.255       .  A
O1086      C1096   1.260       .  A
O1086      V1093   1.893       .  S
O1087      C1097   1.269       .  A
O1088      C1098   1.267       .  A
O1088      V1093   1.918       .  S
O1089      V1094   1.881   1_545  S
O1091      V1094   1.902   1_545  S
C1098      C1204   1.464       .  S
C1099      N1100   1.352       .  A
C1099      N1104   1.389       .  A
C1099      C1119   1.514       .  S
N1100      C1101   1.338       .  A
C1101      N1102   1.347   1_655  A
C1101      C1116   1.450   1_655  S
N1102      C1103   1.356       .  A
C1103      N1104   1.397   1_455  A
O1105      C1115   1.268   1_565  A
O1105      V1113   1.912       .  S
O1106      V1113   1.891       .  S
O1107      V1113   1.918       .  S
O1108      C1118   1.279       .  A
O1108      V1113   1.936       .  S
O1109      C1118   1.254   1_545  A
O1109      V1114   1.876       .  S
O1110      V1114   1.827       .  S
O1111      V1114   1.896   1_565  S
O1112      C1115   1.263       .  A
O1112      V1114   1.884       .  S
V1113      V1114   2.082   1_565  T
C1115      N1200   1.433       .  S
C1117      C1129   1.443       .  S
C1118      C1123   1.481       .  S
C1119      N1120   1.386       .  A
C1119      N1124   1.370       .  A
N1120      C1121   1.392       .  A
C1121      N1122   1.360       .  A
C1121      C1138   1.577       .  S
N1122      C1123   1.352       .  A
C1123      N1124   1.345       .  A
N1125      C1129   1.359   1_545  A
N1125      C1126   1.363       .  A
C1126      C1201   1.487       .  S
C1126      C1127   1.372       .  A
C1127      C1128   1.368   1_545  A
C1127      H1130   1.079       .  S
C1128      C1129   1.386       .  A
C1128      H1131   1.085       .  S
C1132      N1133   1.387       .  A
C1132      N1137   1.369       .  A
C1132      C1139   1.520       .  S
N1133      C1134   1.393       .  A
C1134      N1135   1.349       .  A
C1134      C1138   1.560       .  S
N1135      C1136   1.341       .  A
C1136      N1137   1.349       .  A
C1136      C1164   1.463       .  S
C1139      N1140   1.356       .  A
C1139      N1144   1.391       .  A
N1140      C1141   1.344       .  A
C1141      N1142   1.348       .  A
C1141      C1162   1.461       .  S
N1142      C1143   1.361       .  A
C1143      N1144   1.397       .  A
C1145      N1146   1.355       .  A
C1145      N1150   1.382       .  A
C1145      C1165   1.496   1_655  S
N1146      C1147   1.341       .  A
C1147      N1148   1.354       .  A
C1147      C1182   1.461       .  S
O1151      C1161   1.268       .  A
O1151      V1159   1.922       .  S
O1152      V1159   1.923   1_545  S
O1153      V1159   1.928   1_545  S
O1154      C1164   1.268       .  A
O1154      V1159   1.913       .  S
O1155      C1164   1.260       .  A
O1155      V1160   1.888       .  S
O1156      C1163   1.259       .  A
O1157      V1160   1.890   1_545  S
O1158      C1161   1.262       .  A
O1158      V1160   1.884       .  S
V1159      V1160   2.083       .  T
C1161      N1185   1.440       .  S
C1163      C1196   1.457       .  S
C1165      N1166   1.378   1_455  A
C1165      N1170   1.362       .  A
N1166      C1167   1.383       .  A
C1167      N1168   1.368   1_655  A
N1168      C1169   1.357       .  A
C1169      N1170   1.347       .  A
C1169      C1183   1.480       .  S
O1172      C1182   1.260       .  A
O1172      V1179   1.898       .  S
O1173      C1183   1.266   1_655  A
O1174      C1184   1.263       .  A
O1174      V1179   1.912       .  S
O1175      V1180   1.862       .  S
O1177      V1180   1.894       .  S
O1178      C1181   1.269       .  A
C1181      N1192   1.457       .  S
N1185      C1189   1.349   1_556  A
N1185      C1186   1.344       .  A
C1186      C1193   1.482       .  S
C1186      C1187   1.384   1_556  A
C1187      H1190   1.081       .  S
C1188      H1191   1.082       .  S
N1192      C1196   1.359   1_554  A
N1192      C1193   1.367   1_554  A
C1193      C1194   1.375       .  A
C1194      C1195   1.369       .  A
C1194      H1197   1.067       .  S
C1195      C1196   1.385       .  A
C1195      H1198   1.085       .  S
N1200      C1201   1.342       .  A
C1202      C1203   1.383       .  A
C1202      H1205   1.079       .  S
C1203      C1204   1.382       .  A
C1203      H1206   1.083       .  S
