geometry optimzed in LAMMPS
_audit_creation_date              2020-11-30 
_audit_creation_method            'lammps2cif' 
_symmetry_space_group_name_H-M    'P1' 
_symmetry_Int_Tables_number       1 
_symmetry_cell_setting            triclinic 
loop_ 
_symmetry_equiv_pos_as_xyz 
  x,y,z 
_cell_length_a                    42.113793495941955 
_cell_length_b                    42.191898137458566 
_cell_length_c                    42.023284746498824 
_cell_angle_alpha                 90.15587140627996 
_cell_angle_beta                  90.13326409697576 
_cell_angle_gamma                 90.1004970834243 
loop_ 
_atom_site_label 
_atom_site_type_symbol 
_atom_site_fract_x 
_atom_site_fract_y 
_atom_site_fract_z 
_atom_site_charge 
N1          N  0.43267455  0.68133976  0.00233772    -0.27190
N2          N  0.45222831  0.65707738  0.00128198    -0.35050
C3          C  0.43602378  0.63004240  0.00031932     0.01150
C4          C  0.40410717  0.63688287  0.00087907     0.07180
C5          C  0.40250383  0.66992995  0.00202440    -0.06010
H6          H  0.44710317  0.60696646  0.99937924     0.07840
H7          H  0.38130568  0.68433659  0.00300811     0.09040
Cu8        Cu  0.50015908  0.66005143  0.00166343     0.44170
Cu9        Cu  0.45376149  0.72628739  0.00392116     0.41990
Cu10       Cu  0.54682606  0.72386222  0.99181701     0.43880
N11         N  0.54798182  0.65567570  0.00076590    -0.34570
N12         N  0.56760708  0.67955309  0.99659393    -0.28830
C13         C  0.59766707  0.66818869  0.99626459    -0.04930
C14         C  0.59598107  0.63546547  0.00022951     0.07290
C15         C  0.56411143  0.62871266  0.00307174     0.01080
H16         H  0.61878947  0.68235697  0.99271952     0.08730
H17         H  0.55308266  0.60577461  0.00621138     0.07810
N18         N  0.51683865  0.76302766  0.99422333    -0.36020
N19         N  0.48608633  0.76418212  0.00084227    -0.28200
C20         C  0.47765758  0.79476660  0.00353265    -0.03440
C21         C  0.50391132  0.81412285  0.99785141     0.05170
C22         C  0.52804369  0.79266065  0.99153481     0.03260
H23         H  0.45381205  0.80219419  0.00935183     0.08370
H24         H  0.55225551  0.79726125  0.98514681     0.07200
N25         N  0.66500053  0.58274136  0.00282069    -0.27190
N26         N  0.64103583  0.56302268  0.99939415    -0.35050
C27         C  0.61392135  0.57900591  0.99746882     0.01150
C28         C  0.62066349  0.61087934  0.99976253     0.07180
C29         C  0.65353843  0.61271944  0.00301623    -0.05920
H30         H  0.59090659  0.56788492  0.99487021     0.07840
H31         H  0.66776279  0.63390260  0.00595471     0.09040
Cu32       Cu  0.64557951  0.51530277  0.99866517     0.44170
Cu33       Cu  0.70952151  0.56212683  0.00694733     0.41990
Cu34       Cu  0.71186656  0.46897336  0.99579698     0.43880
N35         N  0.64258361  0.46746671  0.99884900    -0.34570
N36         N  0.66686685  0.44793456  0.99759941    -0.28830
C37         C  0.65543035  0.41782565  0.99796412    -0.04930
C38         C  0.62233987  0.41944341  0.99934998     0.07290
C39         C  0.61550551  0.45130923  0.99997157     0.01080
H40         H  0.66984639  0.39665640  0.99691986     0.08730
H41         H  0.59241071  0.46239026  0.00112416     0.07810
N42         N  0.74982200  0.50127999  0.99871610    -0.36020
N43         N  0.74869479  0.53208929  0.00491109    -0.28200
C44         C  0.77838625  0.54328749  0.00762856    -0.03440
C45         C  0.79989991  0.51905877  0.00182834     0.05170
C46         C  0.78045148  0.49278438  0.99634895     0.03260
H47         H  0.78292349  0.56757948  0.01367974     0.08370
H48         H  0.78781515  0.46886706  0.99085479     0.07200
N49         N  0.56831305  0.35111421  0.00380738    -0.27190
N50         N  0.54903179  0.37500391  0.99844634    -0.35050
C51         C  0.56560038  0.40169580  0.99548386     0.01150
C52         C  0.59740585  0.39484327  0.99917244     0.07180
C53         C  0.59854504  0.36224206  0.00432190    -0.05920
H54         H  0.55486461  0.42457685  0.99135474     0.07840
H55         H  0.61942458  0.34800644  0.00873686     0.09040
Cu56       Cu  0.50090362  0.37137933  0.99692998     0.44170
Cu57       Cu  0.54699538  0.30700107  0.00943905     0.41990
Cu58       Cu  0.45410230  0.30514498  0.99597561     0.43880
N59         N  0.45274543  0.37448329  0.99732755    -0.34570
N60         N  0.43313782  0.35016594  0.99682008    -0.28830
C61         C  0.40296647  0.36148101  0.99779487    -0.04930
C62         C  0.40451657  0.39455006  0.99903887     0.07290
C63         C  0.43651043  0.40147077  0.99868841     0.01080
H64         H  0.38177565  0.34695708  0.99792572     0.08730
H65         H  0.44764229  0.42455716  0.99950429     0.07810
N66         N  0.48604727  0.26697081  0.99919972    -0.36020
N67         N  0.51673049  0.26788747  0.00634499    -0.28200
C68         C  0.52768765  0.23814353  0.00862666    -0.03440
C69         C  0.50349765  0.21689207  0.00140794     0.05170
C70         C  0.47743629  0.23646307  0.99574824     0.03260
H71         H  0.55179322  0.23326885  0.01526909     0.08370
H72         H  0.45362260  0.22924721  0.98934201     0.07200
N73         N  0.33568703  0.58285894  0.99684036    -0.27190
N74         N  0.35958805  0.56371587  0.00279376    -0.35050
C75         C  0.38630830  0.58034543  0.00573185     0.01150
C76         C  0.37946067  0.61200430  0.00140609     0.07180
C77         C  0.34683688  0.61301688  0.99590701    -0.05920
H78         H  0.40923192  0.56974026  0.01020099     0.07840
H79         H  0.33260874  0.63374344  0.99090973     0.09040
Cu80       Cu  0.35622427  0.51558727  0.00472161     0.44170
Cu81       Cu  0.29143159  0.56175133  0.99094556     0.41990
Cu82       Cu  0.29023033  0.46868684  0.00078547     0.43880
N83         N  0.35957594  0.46744364  0.00334465    -0.34570
N84         N  0.33525717  0.44787980  0.00164966    -0.28830
C85         C  0.34659655  0.41779866  0.00011436    -0.04930
C86         C  0.37971805  0.41930972  0.00083401     0.07290
C87         C  0.38664286  0.45121805  0.00290349     0.01080
H88         H  0.33206256  0.39671234  0.99820065     0.08730
H89         H  0.40978827  0.46229615  0.00369621     0.07810
N90         N  0.25185230  0.50033728  0.99898944    -0.36020
N91         N  0.25240545  0.53140373  0.99390518    -0.28200
C92         C  0.22245256  0.54223302  0.99304101    -0.03440
C93         C  0.20187493  0.51735666  0.99885030     0.05170
C94         C  0.22144124  0.49117313  0.00212392     0.03260
H95         H  0.21656393  0.56651136  0.98792030     0.08370
H96         H  0.21408316  0.46699053  0.00647080     0.07200
N97         N  0.00115956  0.58393111  0.66608307    -0.27190
N98         N  0.99983645  0.56446582  0.64158355    -0.35050
C99         C  0.99969260  0.58082975  0.61454963     0.01150
C100        C  0.00098569  0.61275506  0.62161818     0.07180
C101        C  0.00190313  0.61410272  0.65484402    -0.05920
H102        H  0.99882239  0.56983142  0.59130947     0.07840
H103        H  0.00305391  0.63517684  0.66952053     0.09040
Cu104      Cu  0.99873132  0.51627675  0.64445660     0.44170
Cu105      Cu  0.00163662  0.56291418  0.71126163     0.41990
Cu106      Cu  0.00193125  0.46917968  0.70979226     0.43880
N107        N  0.99911036  0.46813350  0.64045778    -0.34570
N108        N  0.00058777  0.44851062  0.66468713    -0.28830
C109        C  0.00100434  0.41841148  0.65322181    -0.04930
C110        C  0.99979155  0.41994476  0.62008238     0.07290
C111        C  0.99857407  0.45189527  0.61325841     0.01080
H112        H  0.00237878  0.39728943  0.66768870     0.08730
H113        H  0.99757090  0.46295006  0.59010851     0.07810
N114        N  0.00079304  0.49966693  0.74914293    -0.36020
N115        N  0.00059465  0.53121209  0.74986417    -0.28200
C116        C  0.99948970  0.54069498  0.78047104    -0.03440
C117        C  0.99847380  0.51421150  0.79971906     0.05170
C118        C  0.99983429  0.48874637  0.77914743     0.03260
H119        H  0.99940283  0.56518114  0.78818182     0.08370
H120        H  0.00087405  0.46393749  0.78542563     0.07200
N121        N  0.99696143  0.68129963  0.43240217    -0.27190
N122        N  0.99958553  0.65709662  0.45188639    -0.35050
C123        C  0.00124488  0.63017449  0.43539484     0.01150
C124        C  0.99957100  0.63712538  0.40337300     0.07180
C125        C  0.99690010  0.67007356  0.40209096    -0.05920
H126        H  0.00339318  0.60712056  0.44633274     0.07840
H127        H  0.99489680  0.68456106  0.38098709     0.09040
Cu128      Cu  0.00041284  0.66083793  0.50015873     0.44170
Cu129      Cu  0.99427666  0.72601665  0.45373729     0.41990
Cu130      Cu  0.00424105  0.72732150  0.54721914     0.43880
N131        N  0.00117181  0.65784716  0.54845561    -0.34570
N132        N  0.00290459  0.68213065  0.56811997    -0.28830
C133        C  0.00308676  0.67073271  0.59835376    -0.04930
C134        C  0.00136705  0.63766147  0.59679758     0.07290
C135        C  0.00017447  0.63084331  0.56471315     0.01080
H136        H  0.00436048  0.68519511  0.61961274     0.08730
H137        H  0.99875163  0.60779157  0.55352324     0.07810
N138        N  0.00190582  0.76599843  0.51557272    -0.36020
N139        N  0.99667044  0.76528736  0.48439196    -0.28200
C140        C  0.99474673  0.79518584  0.47362364    -0.03440
C141        C  0.00012409  0.81615642  0.49855754     0.05170
C142        C  0.00422359  0.79651565  0.52478062     0.03260
H143        H  0.98930077  0.80061836  0.44925139     0.08370
H144        H  0.00864975  0.80387922  0.54906608     0.07200
N145        N  0.00039899  0.58420119  0.33335016    -0.27190
N146        N  0.00075038  0.56450455  0.35756910    -0.35050
C147        C  0.00051412  0.58054376  0.38486231     0.01150
C148        C  0.99995890  0.61250237  0.37824480     0.07180
C149        C  0.99986693  0.61424605  0.34504270    -0.05920
H150        H  0.00055811  0.56931160  0.40794606     0.07840
H151        H  0.99945851  0.63548813  0.33069428     0.09040
Cu152      Cu  0.00102835  0.51652934  0.35393748     0.44170
Cu153      Cu  0.00053825  0.56349998  0.28795336     0.41990
Cu154      Cu  0.00008269  0.46961732  0.28853885     0.43880
N155        N  0.00053905  0.46858493  0.35781188    -0.34570
N156        N  0.00017117  0.44891193  0.33349024    -0.28830
C157        C  0.99988102  0.41885112  0.34485173    -0.04930
C158        C  0.00009922  0.42052574  0.37800574     0.07290
C159        C  0.00048865  0.45246970  0.38497470     0.01080
H160        H  0.99960197  0.39766157  0.33030473     0.08730
H161        H  0.00071696  0.46360137  0.40816934     0.07810
N162        N  0.99955498  0.50034104  0.24954913    -0.36020
N163        N  0.99993233  0.53190038  0.24911729    -0.28200
C164        C  0.99950501  0.54153039  0.21858662    -0.03440
C165        C  0.99834092  0.51512752  0.19915447     0.05170
C166        C  0.99875689  0.48955336  0.21943329     0.03260
H167        H  0.99983392  0.56603687  0.21108500     0.08370
H168        H  0.99884478  0.46475497  0.21282605     0.07200
N169        N  0.99949102  0.35114701  0.43086965    -0.27190
N170        N  0.00103556  0.37522580  0.45076244    -0.35050
C171        C  0.00149416  0.40239081  0.43478339     0.01150
C172        C  0.00019025  0.39571757  0.40269364     0.07180
C173        C  0.99894549  0.36271800  0.40078172    -0.05920
H174        H  0.00267737  0.42538998  0.44611945     0.07840
H175        H  0.99772864  0.34841542  0.37941109     0.09040
Cu176      Cu  0.00212144  0.37126714  0.49883171     0.44170
Cu177      Cu  0.99883550  0.30607761  0.45122795     0.41990
Cu178      Cu  0.00017089  0.30550605  0.54535806     0.43880
N179        N  0.00141106  0.37476407  0.54695232    -0.34570
N180        N  0.00044568  0.35053218  0.56656002    -0.28830
C181        C  0.99986967  0.36199917  0.59678907    -0.04930
C182        C  0.00043765  0.39507565  0.59523233     0.07290
C183        C  0.00143389  0.40185798  0.56320638     0.01080
H184        H  0.99894864  0.34759050  0.61801944     0.08730
H185        H  0.00208448  0.42491432  0.55207959     0.07810
N186        N  0.00200953  0.26686747  0.51362652    -0.36020
N187        N  0.00134659  0.26709968  0.48195021    -0.28200
C188        C  0.00296575  0.23703102  0.47130869    -0.03440
C189        C  0.00527375  0.21701450  0.49710845     0.05170
C190        C  0.00415046  0.23661327  0.52346471     0.03260
H191        H  0.00247219  0.23022433  0.44647142     0.08370
H192        H  0.00407225  0.22940896  0.54814378     0.07200
N193        N  0.43231014  0.01539496  0.66552446    -0.27190
N194        N  0.45186013  0.01550233  0.64115245    -0.35050
C195        C  0.43550799  0.01565459  0.61401441     0.01150
C196        C  0.40351071  0.01565276  0.62096366     0.07180
C197        C  0.40209688  0.01546322  0.65415894    -0.05920
H198        H  0.44653411  0.01577038  0.59081749     0.07840
H199        H  0.38096030  0.01547975  0.66873405     0.09040
Cu200      Cu  0.50004381  0.01556042  0.64473386     0.44170
Cu201      Cu  0.45333000  0.01533207  0.71066432     0.41990
Cu202      Cu  0.54714259  0.01425346  0.71109497     0.43880
N203        N  0.54822690  0.01559269  0.64153077    -0.34570
N204        N  0.56780510  0.01497496  0.66597274    -0.28830
C205        C  0.59799357  0.01514918  0.65474396    -0.04930
C206        C  0.59652749  0.01595821  0.62158302     0.07290
C207        C  0.56455995  0.01620546  0.61446875     0.01080
H208        H  0.61914382  0.01480440  0.66939302     0.08730
H209        H  0.55355120  0.01673521  0.59121797     0.07810
N210        N  0.51602810  0.01489553  0.74997551    -0.36020
N211        N  0.48441598  0.01555760  0.74979373    -0.28200
C212        C  0.47410579  0.01642939  0.78005938    -0.03440
C213        C  0.50009461  0.01650795  0.80006708     0.05170
C214        C  0.52618640  0.01519397  0.78036931     0.03260
H215        H  0.44938017  0.01677614  0.78697195     0.08370
H216        H  0.55085848  0.01475725  0.78758381     0.07200
N217        N  0.66628349  0.01530918  0.56895316    -0.27190
N218        N  0.64228750  0.01729128  0.54899104    -0.35050
C219        C  0.61500862  0.01807602  0.56487616     0.01150
C220        C  0.62152750  0.01650940  0.59699455     0.07180
C221        C  0.65456580  0.01480335  0.59899953    -0.05920
H222        H  0.59202683  0.01938320  0.55345745     0.07840
H223        H  0.66877107  0.01292108  0.62038669     0.09040
Cu224      Cu  0.64678993  0.01782137  0.50095037     0.44170
Cu225      Cu  0.71129137  0.01269040  0.54844395     0.41990
Cu226      Cu  0.71299864  0.01224569  0.45427295     0.43880
N227        N  0.64362271  0.01773537  0.45280353    -0.34570
N228        N  0.66784586  0.01568237  0.43317884    -0.28830
C229        C  0.65628056  0.01543339  0.40295792    -0.04930
C230        C  0.62317673  0.01721906  0.40456333     0.07290
C231        C  0.61648628  0.01871569  0.43657880     0.01080
H232        H  0.67059375  0.01333017  0.38171917     0.08730
H233        H  0.59341277  0.02009425  0.44771265     0.07810
N234        N  0.75138971  0.00879148  0.48644743    -0.36020
N235        N  0.75056625  0.00928177  0.51812092    -0.28200
C236        C  0.78044957  0.00771379  0.52934501    -0.03440
C237        C  0.80105773  0.00562174  0.50400084     0.05170
C238        C  0.78194874  0.00672490  0.47721474     0.03260
H239        H  0.78677309  0.00865212  0.55429843     0.08370
H240        H  0.78974133  0.00728255  0.45271265     0.07200
N241        N  0.43361813  0.01345561  0.33469346    -0.27190
N242        N  0.45302178  0.01289402  0.35929079    -0.35050
C243        C  0.43647080  0.01344135  0.38624284     0.01150
C244        C  0.40453285  0.01435119  0.37894083     0.07180
C245        C  0.40334304  0.01429009  0.34573316    -0.05920
H246        H  0.44731756  0.01327931  0.40957519     0.07840
H247        H  0.38231659  0.01510548  0.33092684     0.09040
Cu248      Cu  0.50136083  0.01224490  0.35651048     0.44170
Cu249      Cu  0.45462088  0.01368543  0.28960271     0.41990
Cu250      Cu  0.54778922  0.02259560  0.29097227     0.43880
N251        N  0.54965085  0.01426570  0.35995234    -0.34570
N252        N  0.56889677  0.01876785  0.33574965    -0.28830
C253        C  0.59913853  0.01994898  0.34693252    -0.04930
C254        C  0.59810986  0.01612921  0.37987364     0.07290
C255        C  0.56630289  0.01252912  0.38686551     0.01080
H256        H  0.61997975  0.02388503  0.33246532     0.08730
H257        H  0.55563481  0.00924005  0.40999791     0.07810
N258        N  0.51743412  0.01961524  0.25156409    -0.36020
N259        N  0.48619471  0.01512706  0.25099245    -0.28200
C260        C  0.47684545  0.01241516  0.22048097    -0.03440
C261        C  0.50308085  0.01529289  0.20082193     0.05170
C262        C  0.52820987  0.02043369  0.22149626     0.03260
H263        H  0.45249038  0.00868910  0.21310021     0.08370
H264        H  0.55260583  0.02523045  0.21556891     0.07200
N265        N  0.33383073  0.01528449  0.56753688    -0.27190
N266        N  0.35805667  0.01660319  0.54786725    -0.35050
C267        C  0.38522465  0.01705647  0.56408431     0.01150
C268        C  0.37851623  0.01600358  0.59614657     0.07180
C269        C  0.34538859  0.01491569  0.59774896    -0.05920
H270        H  0.40829032  0.01793516  0.55289759     0.07840
H271        H  0.33100802  0.01367216  0.61900458     0.09040
Cu272      Cu  0.35454022  0.01713203  0.49967203     0.44170
Cu273      Cu  0.28863546  0.01352857  0.54650633     0.41990
Cu274      Cu  0.28937198  0.01210268  0.45228725     0.43880
N275        N  0.35861408  0.01671085  0.45152736    -0.34570
N276        N  0.33455146  0.01460939  0.43161538    -0.28830
C277        C  0.34628772  0.01389207  0.40153594    -0.04930
C278        C  0.37938307  0.01554485  0.40347156     0.07290
C279        C  0.38587763  0.01736690  0.43559253     0.01080
H280        H  0.33206740  0.01176163  0.38016646     0.08730
H281        H  0.40887142  0.01865241  0.44700355     0.07810
N282        N  0.25017356  0.01003671  0.48317906    -0.36020
N283        N  0.24983678  0.01090300  0.51486994    -0.28200
C284        C  0.21942254  0.01003577  0.52471583    -0.03440
C285        C  0.19986635  0.00805564  0.49837736     0.05170
C286        C  0.22002071  0.00841527  0.47255745     0.03260
H287        H  0.21205389  0.01117423  0.54933771     0.08370
H288        H  0.21323182  0.00831476  0.44771275     0.07200
O289        O  0.99902374  0.06377371  0.47302703    -0.72840
O290        O  0.99865297  0.96898124  0.47746104    -0.73820
O291        O  0.95120331  0.01645225  0.47849524    -0.62440
O292        O  0.04683654  0.01579952  0.47282866    -0.70850
O293        O  0.04954862  0.01851728  0.52554456    -0.70410
O294        O  0.95436400  0.01831218  0.53118652    -0.61660
O295        O  0.00209533  0.97071496  0.52991843    -0.74170
O296        O  0.00218186  0.06644598  0.52567033    -0.72950
Cu297      Cu  0.99881185  0.01622790  0.47364197     1.04560
Cu298      Cu  0.00213467  0.01865704  0.52992629     1.04330
C299        C  0.00059763  0.08012934  0.49855928     0.93360
C300        C  0.00029133  0.95462643  0.50415055     0.92490
C301        C  0.93775453  0.01730598  0.50574465     0.84640
C302        C  0.06317453  0.01692371  0.49849876     0.90910
O303        O  0.47217981  0.96801353  0.99931961    -0.72840
O304        O  0.47186672  0.06272911  0.99892400    -0.73820
O305        O  0.47277247  0.01509257  0.95140134    -0.62440
O306        O  0.47140081  0.01560715  0.04695831    -0.70850
O307        O  0.52389529  0.01611454  0.04770614    -0.70410
O308        O  0.52550230  0.01467968  0.95241408    -0.61660
O309        O  0.52422003  0.06308395  0.99947246    -0.74170
O310        O  0.52452016  0.96797087  0.00049779    -0.72950
Cu311      Cu  0.47025195  0.01535693  0.99913118     1.04560
Cu312      Cu  0.52636995  0.01549343  0.00007288     1.04330
C313        C  0.49823887  0.95272425  0.99985988     0.93360
C314        C  0.49788646  0.07818301  0.99904282     0.92490
C315        C  0.49940233  0.01454744  0.93694497     0.84640
C316        C  0.49744580  0.01604299  0.06255095     0.90910
O317        O  0.00143646  0.48694088  0.95162135    -0.72840
O318        O  0.00089990  0.48654379  0.04732546    -0.73820
O319        O  0.95389629  0.48688753  0.99913649    -0.62440
O320        O  0.04864264  0.48622935  0.99989737    -0.70850
O321        O  0.04935685  0.53864864  0.99971210    -0.70410
O322        O  0.95416440  0.53915328  0.99986716    -0.61660
O323        O  0.00208018  0.53917435  0.04731923    -0.74170
O324        O  0.00190787  0.53953773  0.95224846    -0.72950
Cu325      Cu  0.00120624  0.48481526  0.99947505     1.04560
Cu326      Cu  0.00185697  0.54095660  0.99979690     1.04330
C327        C  0.00199193  0.51341725  0.93692103     0.93360
C328        C  0.00168145  0.51293040  0.06229221     0.92490
C329        C  0.93874690  0.51297655  0.99961593     0.84640
C330        C  0.06414694  0.51220436  0.99964946     0.90910
C331        C  0.15051255  0.03899041  0.50381416    -0.05680
C332        C  0.16484208  0.00964304  0.49778785     0.00250
C333        C  0.14574571  0.98270748  0.49146048    -0.08320
C334        C  0.11248567  0.98621541  0.49095835    -0.05700
C335        C  0.09816137  0.01555214  0.49720373     0.00230
C336        C  0.11729085  0.04240911  0.50369433    -0.08230
C337        C  0.10252242  0.07450076  0.51013022     0.62150
H338        H  0.16564518  0.05923144  0.50866326     0.12840
H339        H  0.09733096  0.96591849  0.48641119     0.12850
C340        C  0.16052854  0.95033812  0.48636042     0.62380
F341        F  0.12525945  0.09791888  0.51415814    -0.22790
F342        F  0.08450606  0.07306082  0.53754219    -0.20120
F343        F  0.08334348  0.08291716  0.48476750    -0.19790
F344        F  0.17848414  0.94228624  0.51272554    -0.19850
F345        F  0.17985926  0.95092316  0.45983321    -0.20170
F346        F  0.13775695  0.92703702  0.48182218    -0.22840
C347        C  0.52352195  0.00127883  0.11313246    -0.05680
C348        C  0.49758218  0.01577018  0.09798460     0.00250
C349        C  0.47354345  0.02995434  0.11688923    -0.08320
C350        C  0.47683601  0.02944792  0.15020614    -0.05700
C351        C  0.50287431  0.01512655  0.16536451     0.00230
C352        C  0.52653642  0.00022886  0.14645899    -0.08230
C353        C  0.55475658  0.98274249  0.16060325     0.62150
H354        H  0.54167667  0.99049147  0.09847760     0.12840
H355        H  0.45892746  0.04059690  0.16486340     0.12850
C356        C  0.44491890  0.04636930  0.10234698     0.62380
F357        F  0.56903972  0.96307643  0.13843491    -0.22790
F358        F  0.54526223  0.96394760  0.18577014    -0.20120
F359        F  0.57732078  0.00433296  0.17074993    -0.19790
F360        F  0.42590835  0.02438220  0.08693939    -0.19850
F361        F  0.45496970  0.06912054  0.08100573    -0.20170
F362        F  0.42646852  0.06133412  0.12508552    -0.22840
C363        C  0.84979409  0.03418445  0.51976556    -0.05680
C364        C  0.83608921  0.00740911  0.50548226     0.00250
C365        C  0.85584317  0.98293437  0.49390904    -0.08320
C366        C  0.88893877  0.98759332  0.49427921    -0.05700
C367        C  0.90277370  0.01496152  0.50754008     0.00230
C368        C  0.88287868  0.03830903  0.52162589    -0.08230
C369        C  0.89426622  0.06818564  0.53842137     0.62150
H370        H  0.83434336  0.05231737  0.52949854     0.12840
H371        H  0.90444183  0.96950689  0.48462427     0.12850
C372        C  0.84210630  0.95146423  0.48291542     0.62380
F373        F  0.88217860  0.09440172  0.52285970    -0.22790
F374        F  0.88295148  0.06819392  0.56930403    -0.20120
F375        F  0.92683051  0.07121492  0.53974763    -0.19790
F376        F  0.82407863  0.95569293  0.45576991    -0.19850
F377        F  0.82316353  0.93897406  0.50666490    -0.20170
F378        F  0.86564867  0.92959871  0.47616246    -0.22840
C379        C  0.50834799  0.98870247  0.85097882    -0.05680
C380        C  0.50002353  0.01669533  0.83512577     0.00250
C381        C  0.49207773  0.04415753  0.85278061    -0.08320
C382        C  0.49194538  0.04241457  0.88617563    -0.05700
C383        C  0.50000263  0.01437654  0.90199240     0.00230
C384        C  0.50838854  0.98702661  0.88440679    -0.08230
C385        C  0.51655606  0.95616293  0.90098852     0.62150
H386        H  0.51451355  0.96807978  0.83689448     0.12840
H387        H  0.48578963  0.06302899  0.90028698     0.12850
C388        C  0.48462047  0.07528020  0.83638135     0.62380
F389        F  0.52256718  0.93201420  0.87946933    -0.22790
F390        F  0.49147749  0.94688476  0.92003212    -0.20120
F391        F  0.54331762  0.96026073  0.91967877    -0.19790
F392        F  0.45732722  0.07213816  0.81832664    -0.19850
F393        F  0.50959014  0.08371516  0.81680067    -0.20170
F394        F  0.47994241  0.09961987  0.85802537    -0.22840
C395        C  0.02720864  0.13085124  0.51114994    -0.05680
C396        C  0.00151418  0.11516401  0.49674896     0.00250
C397        C  0.97792411  0.13309028  0.48075541    -0.08320
C398        C  0.97990070  0.16639721  0.48169758    -0.05700
C399        C  0.00536579  0.18198236  0.49658391     0.00230
C400        C  0.03035073  0.16401684  0.50999611    -0.08230
C401        C  0.06105946  0.17957340  0.52092620     0.62150
H402        H  0.04532786  0.11681444  0.52263192     0.12840
H403        H  0.96161066  0.18064357  0.47060782     0.12850
C404        C  0.95077566  0.11732245  0.46288198     0.62380
F405        F  0.08389186  0.15736554  0.52886566    -0.22790
F406        F  0.05569062  0.19835814  0.54730672    -0.20120
F407        F  0.07310862  0.19808280  0.49662205    -0.19790
F408        F  0.93538932  0.09604417  0.48237427    -0.19850
F409        F  0.96248756  0.10141262  0.43663897    -0.20170
F410        F  0.92861263  0.13914512  0.45236767    -0.22840
C411        C  0.97392463  0.50361257  0.11288775    -0.05680
C412        C  0.00164164  0.51323023  0.09726048     0.00250
C413        C  0.02834182  0.52345391  0.11504189    -0.08320
C414        C  0.02624945  0.52394438  0.14843019    -0.05700
C415        C  0.99852276  0.51432096  0.16409879     0.00230
C416        C  0.97177718  0.50421078  0.14626645    -0.08230
C417        C  0.94089012  0.49506441  0.16240926     0.62150
H418        H  0.95381206  0.49603175  0.09863667     0.12840
H419        H  0.04635471  0.53159819  0.16264231     0.12850
C420        C  0.05905106  0.53295813  0.09873878     0.62380
F421        F  0.91702026  0.48879901  0.14055740    -0.22790
F422        F  0.93085626  0.51958900  0.18183081    -0.20120
F423        F  0.94534000  0.46817893  0.18056715    -0.19790
F424        F  0.05407824  0.55951162  0.08019896    -0.19850
F425        F  0.06948660  0.50836654  0.07961903    -0.20170
F426        F  0.08282062  0.53994124  0.12047634    -0.22840
C427        C  0.01078680  0.90397231  0.47630864    -0.05680
C428        C  0.00061408  0.91917750  0.50426867     0.00250
C429        C  0.99037377  0.90028634  0.53023040    -0.08320
C430        C  0.99017568  0.86702685  0.52672094    -0.05700
C431        C  0.00026329  0.85174111  0.49866484     0.00230
C432        C  0.01122087  0.87077653  0.47293268    -0.08230
C433        C  0.02346510  0.85718145  0.44172779     0.62150
H434        H  0.01854427  0.91854064  0.45663070     0.12840
H435        H  0.98177918  0.85255759  0.54617126     0.12850
C436        C  0.97922697  0.91474745  0.56142758     0.62380
F437        F  0.04022717  0.87950326  0.42440896    -0.22790
F438        F  0.99812068  0.84746514  0.42315331    -0.20120
F439        F  0.04384253  0.83212968  0.44726740    -0.19790
F440        F  0.95478551  0.93587503  0.55575856    -0.19850
F441        F  0.00424300  0.93027037  0.57613207    -0.20170
F442        F  0.96808725  0.89203139  0.58235817    -0.22840
C443        C  0.02402175  0.52846953  0.85065893    -0.05680
C444        C  0.99873809  0.51347196  0.83486683     0.00250
C445        C  0.97427069  0.49885271  0.85273188    -0.08320
C446        C  0.97661702  0.49889329  0.88611532    -0.05700
C447        C  0.00191427  0.51383449  0.90186523     0.00230
C448        C  0.02608296  0.52896162  0.88406479    -0.08230
C449        C  0.05426907  0.54483484  0.90019736     0.62150
H450        H  0.04227903  0.53972128  0.83649068     0.12840
H451        H  0.95833756  0.48770708  0.90031796     0.12850
C452        C  0.94516204  0.48452052  0.83682037     0.62380
F453        F  0.07659235  0.55510534  0.87837962    -0.22790
F454        F  0.06897472  0.52366908  0.92047370    -0.20120
F455        F  0.04416929  0.57086717  0.91742249    -0.19790
F456        F  0.95357095  0.45775455  0.81986986    -0.19850
F457        F  0.93166228  0.50637397  0.81639709    -0.20170
F458        F  0.92233598  0.47582420  0.85881353    -0.22840
C459        C  0.15120649  0.49073847  0.98624618    -0.05680
C460        C  0.16655934  0.51730089  0.99942519     0.00250
C461        C  0.14800305  0.54155017  0.01375853    -0.08320
C462        C  0.11476700  0.53863940  0.01305570    -0.05700
C463        C  0.09942466  0.51216280  0.99971227     0.00230
C464        C  0.11800305  0.48735064  0.98645504    -0.08230
C465        C  0.10337995  0.45741053  0.97237349     0.62150
H466        H  0.16563902  0.47236747  0.97561311     0.12840
H467        H  0.10035598  0.55727965  0.02328934     0.12850
C468        C  0.16237748  0.57030006  0.03031493     0.62380
F469        F  0.12592821  0.43803723  0.95839775    -0.22790
F470        F  0.08138491  0.46516941  0.94920547    -0.20120
F471        F  0.08878334  0.44013098  0.99614942    -0.19790
F472        F  0.17202309  0.59213172  0.00787558    -0.19850
F473        F  0.18785300  0.56149338  0.04911763    -0.20170
F474        F  0.14058572  0.58514539  0.04995822    -0.22840
C475        C  0.47408042  0.16590796  0.00358530    -0.05680
C476        C  0.50367700  0.18120864  0.00059630     0.00250
C477        C  0.53115293  0.16201155  0.99572540    -0.08320
C478        C  0.52770343  0.12881442  0.99583514    -0.05700
C479        C  0.49810343  0.11368637  0.99880089     0.00230
C480        C  0.47043553  0.13281130  0.00156575    -0.08230
C481        C  0.43694041  0.11912145  0.00194587     0.62150
H482        H  0.45324184  0.18015641  0.00770128     0.12840
H483        H  0.54867419  0.11423456  0.99348422     0.12850
C484        C  0.56433380  0.17523829  0.99038351     0.62380
F485        F  0.41391493  0.14246937  0.00341774    -0.22790
F486        F  0.43299178  0.09986027  0.02817491    -0.20120
F487        F  0.43158628  0.10193818  0.97435284    -0.19790
F488        F  0.57677722  0.18575523  0.01899520    -0.19850
F489        F  0.56360840  0.19948859  0.96832833    -0.20170
F490        F  0.58488537  0.15246109  0.97862547    -0.22840
C491        C  0.85080629  0.48979298  0.00564628    -0.05680
C492        C  0.83566788  0.51931272  0.00193395     0.00250
C493        C  0.85511477  0.54668363  0.99721979    -0.08320
C494        C  0.88832133  0.54298564  0.99678042    -0.05700
C495        C  0.90322364  0.51340852  0.99999149     0.00230
C496        C  0.88392116  0.48599211  0.00392584    -0.08230
C497        C  0.89748798  0.45260941  0.00617805     0.62150
H498        H  0.83641214  0.46913629  0.01016903     0.12840
H499        H  0.90314673  0.56373219  0.99393163     0.12850
C500        C  0.84214752  0.58003167  0.99295776     0.62380
F501        F  0.87404625  0.42981292  0.00957248    -0.22790
F502        F  0.91740899  0.45037190  0.03228971    -0.20120
F503        F  0.91399071  0.44544772  0.97865090    -0.19790
F504        F  0.83061880  0.59101655  0.02171269    -0.19850
F505        F  0.81868994  0.58030980  0.96988756    -0.20170
F506        F  0.86533738  0.60120468  0.98325687    -0.22840
C507        C  0.47473603  0.86495833  0.99383130    -0.05680
C508        C  0.50423513  0.84979098  0.99785975     0.00250
C509        C  0.53167244  0.86910152  0.00300032    -0.08320
C510        C  0.52812425  0.90227103  0.00318531    -0.05700
C511        C  0.49855706  0.91724717  0.99959049     0.00230
C512        C  0.47103889  0.89803858  0.99549063    -0.08230
C513        C  0.43764691  0.91166756  0.99307390     0.62150
H514        H  0.45402840  0.85059343  0.98912378     0.12840
H515        H  0.54898496  0.91697577  0.00616874     0.12850
C516        C  0.56492257  0.85599797  0.00810365     0.62380
F517        F  0.41471564  0.88829695  0.98991295    -0.22790
F518        F  0.43536066  0.93115569  0.96675960    -0.20120
F519        F  0.43066181  0.92858728  0.02042424    -0.19790
F520        F  0.57668402  0.84480537  0.97952769    -0.19850
F521        F  0.56455475  0.83227492  0.03073600    -0.20170
F522        F  0.58587432  0.87899019  0.01891399    -0.22840
loop_ 
_geom_bond_atom_site_label_1 
_geom_bond_atom_site_label_2 
_geom_bond_distance 
_geom_bond_site_symmetry_2 
_ccdc_geom_bond_type 
N1            N2   1.316       .  A
N1            C5   1.358       .  A
N1           Cu9   2.093       .  S
N2            C3   1.329       .  A
N2           Cu8   2.022       .  S
C3            C4   1.376       .  A
C3            H6   1.081   1_554  S
C4            C5   1.397       .  A
C4           C76   1.475       .  S
C5            H7   1.082       .  S
Cu8          N11   2.023       .  S
Cu9          N19   2.103       .  S
Cu10         N12   2.076       .  S
Cu10         N18   2.084       .  S
N11          N12   1.314   1_554  A
N11          C15   1.330       .  A
N12          C13   1.355       .  A
C13          C14   1.393   1_556  A
C13          H16   1.082       .  S
C14          C15   1.377       .  A
C14          C28   1.470   1_554  S
C15          H17   1.081       .  S
N18          N19   1.326   1_556  A
N18          C22   1.341       .  A
N19          C20   1.343       .  A
C20          C21   1.395   1_554  A
C20          H23   1.081       .  S
C21          C22   1.388       .  A
C21         C508   1.505       .  S
C22          H24   1.073       .  S
N25          N26   1.314   1_554  A
N25          C29   1.355       .  A
N25         Cu33   2.075       .  S
N26          C27   1.330       .  A
N26         Cu32   2.023       .  S
C27          C28   1.377       .  A
C27          H30   1.081       .  S
C28          C29   1.393   1_556  A
C29          H31   1.082       .  S
Cu32         N35   2.022       .  S
Cu33         N43   2.084       .  S
Cu34         N36   2.093       .  S
Cu34         N42   2.102       .  S
N35          N36   1.316       .  A
N35          C39   1.329       .  A
N36          C37   1.358       .  A
C37          C38   1.397       .  A
C37          H40   1.082       .  S
C38          C39   1.376       .  A
C38          C52   1.475       .  S
C39          H41   1.081   1_556  S
N42          N43   1.326   1_556  A
N42          C46   1.343       .  A
N43          C44   1.340       .  A
C44          C45   1.389       .  A
C44          H47   1.072       .  S
C45          C46   1.395   1_554  A
C45         C492   1.506       .  S
C46          H48   1.081       .  S
N49          N50   1.315   1_554  A
N49          C53   1.356       .  A
N49         Cu57   2.079       .  S
N50          C51   1.330       .  A
N50         Cu56   2.033       .  S
C51          C52   1.379       .  A
C51          H54   1.081       .  S
C52          C53   1.394   1_556  A
C53          H55   1.082       .  S
Cu56         N59   2.033       .  S
Cu57         N67   2.087       .  S
Cu58         N60   2.096       .  S
Cu58         N66   2.105       .  S
N59          N60   1.316       .  A
N59          C63   1.330       .  A
N60          C61   1.359       .  A
C61          C62   1.397       .  A
C61          H64   1.082       .  S
C62          C63   1.378       .  A
C62          C86   1.480   1_556  S
C63          H65   1.081       .  S
N66          N67   1.326   1_556  A
N66          C70   1.344       .  A
N67          C68   1.341       .  A
C68          C69   1.388       .  A
C68          H71   1.073       .  S
C69          C70   1.395   1_554  A
C69         C476   1.506       .  S
C70          H72   1.081       .  S
N73          N74   1.316   1_556  A
N73          C77   1.356       .  A
N73         Cu81   2.078       .  S
N74          C75   1.330       .  A
N74         Cu80   2.037       .  S
C75          C76   1.379       .  A
C75          H78   1.081       .  S
C76          C77   1.393   1_554  A
C77          H79   1.082       .  S
Cu80         N83   2.037       .  S
Cu81         N91   2.086       .  S
Cu82         N84   2.091       .  S
Cu82         N90   2.100   1_554  S
N83          N84   1.316       .  A
N83          C87   1.331       .  A
N84          C85   1.358       .  A
C85          C86   1.396       .  A
C85          H88   1.082   1_554  S
C86          C87   1.379       .  A
C87          H89   1.081       .  S
N90          N91   1.329       .  A
N90          C94   1.344   1_556  A
N91          C92   1.343       .  A
C92          C93   1.383       .  A
C92          H95   1.077       .  S
C93          C94   1.386   1_556  A
C93         C460   1.488       .  S
C94          H96   1.082       .  S
N97          N98   1.316   1_455  A
N97         C101   1.359       .  A
N97        Cu105   2.098       .  S
N98          C99   1.331       .  A
N98        Cu104   2.038       .  S
C99         C100   1.380   1_655  A
C99         H102   1.081       .  S
C100        C101   1.398       .  A
C100        C134   1.483       .  S
C101        H103   1.082       .  S
Cu104       N107   2.038       .  S
Cu105       N115   2.106       .  S
Cu106       N108   2.085       .  S
Cu106       N114   2.093       .  S
N107        N108   1.315   1_655  A
N107        C111   1.331       .  A
N108        C109   1.357       .  A
C109        C110   1.395   1_455  A
C109        H112   1.082       .  S
C110        C111   1.380       .  A
C110        C182   1.479   1_655  S
C111        H113   1.081       .  S
N114        N115   1.331       .  A
N114        C118   1.344   1_455  A
N115        C116   1.347   1_455  A
C116        C117   1.382       .  A
C116        H119   1.082       .  S
C117        C118   1.379       .  A
C117        C444   1.477       .  S
C118        H120   1.081   1_655  S
N121        N122   1.315       .  A
N121        C125   1.358       .  A
N121       Cu129   2.090       .  S
N122        C123   1.331   1_655  A
N122       Cu128   2.034   1_655  S
C123        C124   1.380   1_455  A
C123        H126   1.081       .  S
C124        C125   1.396       .  A
C124        C148   1.479       .  S
C125        H127   1.082       .  S
Cu128       N131   2.034       .  S
Cu129       N139   2.098       .  S
Cu130       N132   2.102       .  S
Cu130       N138   2.110       .  S
N131        N132   1.316       .  A
N131        C135   1.331       .  A
N132        C133   1.360       .  A
C133        C134   1.398       .  A
C133        H136   1.082       .  S
C134        C135   1.379       .  A
C135        H137   1.081   1_455  S
N138        N139   1.328   1_455  A
N138        C142   1.347       .  A
N139        C140   1.344       .  A
C140        C141   1.388   1_655  A
C140        H143   1.074       .  S
C141        C142   1.391       .  A
C141        C431   1.501       .  S
C142        H144   1.082       .  S
N145        N146   1.316       .  A
N145        C149   1.359   1_455  A
N145       Cu153   2.096       .  S
N146        C147   1.330       .  A
N146       Cu152   2.030       .  S
C147        C148   1.378   1_455  A
C147        H150   1.081       .  S
C148        C149   1.397       .  A
C149        H151   1.082       .  S
Cu152       N155   2.030       .  S
Cu153       N163   2.105   1_455  S
Cu154       N156   2.083       .  S
Cu154       N162   2.092   1_455  S
N155        N156   1.315       .  A
N155        C159   1.330       .  A
N156        C157   1.356   1_455  A
C157        C158   1.395   1_655  A
C157        H160   1.082       .  S
C158        C159   1.379       .  A
C158        C172   1.476       .  S
C159        H161   1.081       .  S
N162        N163   1.332       .  A
N162        C166   1.344       .  A
N163        C164   1.347       .  A
C164        C165   1.380       .  A
C164        H167   1.082       .  S
C165        C166   1.377       .  A
C165        C415   1.473       .  S
C166        H168   1.082       .  S
N169        N170   1.315   1_655  A
N169        C173   1.357       .  A
N169       Cu177   2.087       .  S
N170        C171   1.330       .  A
N170       Cu176   2.028       .  S
C171        C172   1.378       .  A
C171        H174   1.081       .  S
C172        C173   1.395   1_455  A
C173        H175   1.082       .  S
Cu176       N179   2.027       .  S
Cu177       N187   2.096   1_655  S
Cu178       N180   2.096       .  S
Cu178       N186   2.105       .  S
N179        N180   1.315       .  A
N179        C183   1.330       .  A
N180        C181   1.358   1_455  A
C181        C182   1.397   1_655  A
C181        H184   1.082       .  S
C182        C183   1.377       .  A
C183        H185   1.081       .  S
N186        N187   1.331       .  A
N186        C190   1.346       .  A
N187        C188   1.346       .  A
C188        C189   1.379       .  A
C188        H191   1.082       .  S
C189        C190   1.381       .  A
C189        C399   1.478       .  S
C190        H192   1.082       .  S
N193        N194   1.316       .  A
N193        C197   1.358       .  A
N193       Cu201   2.091       .  S
N194        C195   1.331       .  A
N194       Cu200   2.034       .  S
C195        C196   1.379       .  A
C195        H198   1.081       .  S
C196        C197   1.396       .  A
C196        C268   1.480       .  S
C197        H199   1.082       .  S
Cu200       N203   2.034       .  S
Cu201       N211   2.099       .  S
Cu202       N204   2.088       .  S
Cu202       N210   2.097       .  S
N203        N204   1.316       .  A
N203        C207   1.331       .  A
N204        C205   1.357       .  A
C205        C206   1.395       .  A
C205        H208   1.082       .  S
C206        C207   1.378       .  A
C206        C220   1.477       .  S
C207        H209   1.081       .  S
N210        N211   1.332       .  A
N210        C214   1.346       .  A
N211        C212   1.345       .  A
C212        C213   1.379       .  A
C212        H215   1.082       .  S
C213        C214   1.378       .  A
C213        C380   1.473       .  S
C214        H216   1.082       .  S
N217        N218   1.315       .  A
N217        C221   1.357       .  A
N217       Cu225   2.087       .  S
N218        C219   1.330       .  A
N218       Cu224   2.028       .  S
C219        C220   1.379       .  A
C219        H222   1.081       .  S
C220        C221   1.396       .  A
C221        H223   1.082       .  S
Cu224       N227   2.027       .  S
Cu225       N235   2.095       .  S
Cu226       N228   2.102       .  S
Cu226       N234   2.111       .  S
N227        N228   1.316       .  A
N227        C231   1.330       .  A
N228        C229   1.359       .  A
C229        C230   1.398       .  A
C229        H232   1.082       .  S
C230        C231   1.377       .  A
C230        C254   1.479       .  S
C231        H233   1.081       .  S
N234        N235   1.332       .  A
N234        C238   1.348       .  A
N235        C236   1.345       .  A
C236        C237   1.378       .  A
C236        H239   1.082       .  S
C237        C238   1.383       .  A
C237        C364   1.478       .  S
C238        H240   1.082       .  S
N241        N242   1.316       .  A
N241        C245   1.358       .  A
N241       Cu249   2.093       .  S
N242        C243   1.331       .  A
N242       Cu248   2.040       .  S
C243        C244   1.380       .  A
C243        H246   1.081       .  S
C244        C245   1.396       .  A
C244        C278   1.481       .  S
C245        H247   1.082       .  S
Cu248       N251   2.040       .  S
Cu249       N259   2.101       .  S
Cu250       N252   2.086       .  S
Cu250       N258   2.093       .  S
N251        N252   1.316       .  A
N251        C255   1.332       .  A
N252        C253   1.357       .  A
C253        C254   1.395       .  A
C253        H256   1.082       .  S
C254        C255   1.380       .  A
C255        H257   1.081       .  S
N258        N259   1.329       .  A
N258        C262   1.344       .  A
N259        C260   1.345       .  A
C260        C261   1.386       .  A
C260        H263   1.082       .  S
C261        C262   1.384       .  A
C261        C351   1.490       .  S
C262        H264   1.077       .  S
N265        N266   1.316       .  A
N265        C269   1.359       .  A
N265       Cu273   2.098       .  S
N266        C267   1.330       .  A
N266       Cu272   2.031       .  S
C267        C268   1.378       .  A
C267        H270   1.081       .  S
C268        C269   1.398       .  A
C269        H271   1.082       .  S
Cu272       N275   2.031       .  S
Cu273       N283   2.107       .  S
Cu274       N276   2.096       .  S
Cu274       N282   2.104       .  S
N275        N276   1.315       .  A
N275        C279   1.331       .  A
N276        C277   1.359       .  A
C277        C278   1.398       .  A
C277        H280   1.082       .  S
C278        C279   1.379       .  A
C279        H281   1.081       .  S
N282        N283   1.332       .  A
N282        C286   1.347       .  A
N283        C284   1.347       .  A
C284        C285   1.380       .  A
C284        H287   1.082       .  S
C285        C286   1.379       .  A
C285        C332   1.477       .  S
C286        H288   1.082       .  S
O289       Cu297   2.006       .  S
O289        C299   1.276   1_655  A
O290       Cu297   2.000   1_565  S
O290        C300   1.278   1_655  A
O291       Cu297   2.016       .  S
O291        C301   1.279       .  A
O292       Cu297   2.023   1_455  S
O292        C302   1.279       .  A
O293       Cu298   2.006       .  S
O293        C302   1.276       .  A
O294       Cu298   2.013   1_655  S
O294        C301   1.277       .  A
O295       Cu298   2.023   1_565  S
O295        C300   1.278       .  A
O296       Cu298   2.025       .  S
O296        C299   1.280       .  A
Cu297      Cu298   2.371   1_655  S
C299        C396   1.481       .  S
C300        C428   1.496       .  S
C301        C367   1.478       .  S
C302        C335   1.476       .  S
O303       Cu311   1.999   1_565  S
O303        C313   1.274       .  A
O304       Cu311   2.000       .  S
O304        C314   1.274       .  A
O305       Cu311   2.009       .  S
O305        C315   1.277       .  A
O306       Cu311   2.010   1_554  S
O306        C316   1.276       .  A
O307       Cu312   2.005       .  S
O307        C316   1.278       .  A
O308       Cu312   2.003   1_556  S
O308        C315   1.276       .  A
O309       Cu312   2.010   1_556  S
O309        C314   1.280       .  A
O310       Cu312   2.007   1_565  S
O310        C313   1.279   1_554  A
Cu311      Cu312   2.364   1_556  S
C313        C511   1.497       .  S
C314        C479   1.498       .  S
C315        C383   1.469       .  S
C316        C348   1.489       .  S
O317       Cu325   2.013       .  S
O317        C327   1.278       .  A
O318       Cu325   2.012   1_554  S
O318        C328   1.278       .  A
O319       Cu325   1.994   1_655  S
O319        C329   1.273       .  A
O320       Cu325   1.999       .  S
O320        C330   1.275       .  A
O321       Cu326   2.003       .  S
O321        C330   1.279       .  A
O322       Cu326   2.010   1_655  S
O322        C329   1.280       .  A
O323       Cu326   1.999   1_554  S
O323        C328   1.275       .  A
O324       Cu326   1.999       .  S
O324        C327   1.275       .  A
Cu325      Cu326   2.369       .  S
C327        C447   1.473       .  S
C328        C412   1.470       .  S
C329        C495   1.496       .  S
C330        C463   1.486       .  S
C331        C332   1.401       .  A
C331        C336   1.407       .  A
C331        H338   1.083       .  S
C332        C333   1.415   1_545  A
C333        C334   1.409       .  A
C333        C340   1.517       .  S
C334        C335   1.402   1_565  A
C334        H339   1.083       .  S
C335        C336   1.415       .  A
C336        C337   1.515       .  S
C337        F341   1.384       .  S
C337        F342   1.382       .  S
C337        F343   1.383       .  S
C340        F344   1.383       .  S
C340        F345   1.382       .  S
C340        F346   1.385       .  S
C347        C348   1.405       .  A
C347        C352   1.407       .  A
C347        H354   1.083   1_545  S
C348        C349   1.420       .  A
C349        C350   1.407       .  A
C349        C356   1.519       .  S
C350        C351   1.405       .  A
C350        H355   1.082       .  S
C351        C352   1.422       .  A
C352        C353   1.521   1_545  S
C353        F357   1.385       .  S
C353        F358   1.383       .  S
C353        F359   1.381   1_565  S
C356        F360   1.383       .  S
C356        F361   1.382       .  S
C356        F362   1.385       .  S
C363        C364   1.401       .  A
C363        C368   1.406       .  A
C363        H370   1.085       .  S
C364        C365   1.413   1_545  A
C365        C366   1.407       .  A
C365        C372   1.518       .  S
C366        C367   1.406   1_565  A
C366        H371   1.084       .  S
C367        C368   1.423       .  A
C368        C369   1.519       .  S
C369        F373   1.384       .  S
C369        F374   1.384       .  S
C369        F375   1.378       .  S
C372        F376   1.381       .  S
C372        F377   1.384       .  S
C372        F378   1.385       .  S
C379        C380   1.402   1_565  A
C379        C384   1.407       .  A
C379        H386   1.083       .  S
C380        C381   1.415       .  A
C381        C382   1.406       .  A
C381        C388   1.518       .  S
C382        C383   1.400       .  A
C382        H387   1.084       .  S
C383        C384   1.414   1_545  A
C384        C385   1.518       .  S
C385        F389   1.385       .  S
C385        F390   1.383       .  S
C385        F391   1.383       .  S
C388        F392   1.382       .  S
C388        F393   1.383       .  S
C388        F394   1.385       .  S
C395        C396   1.403       .  A
C395        C400   1.406       .  A
C395        H402   1.080       .  S
C396        C397   1.419   1_455  A
C397        C398   1.408       .  A
C397        C404   1.518       .  S
C398        C399   1.402   1_655  A
C398        H403   1.083       .  S
C399        C400   1.415       .  A
C400        C401   1.519       .  S
C401        F405   1.385       .  S
C401        F406   1.380       .  S
C401        F407   1.384       .  S
C404        F408   1.379       .  S
C404        F409   1.382       .  S
C404        F410   1.385       .  S
C411        C412   1.401   1_655  A
C411        C416   1.406       .  A
C411        H418   1.084       .  S
C412        C413   1.415       .  A
C413        C414   1.406       .  A
C413        C420   1.519       .  S
C414        C415   1.402   1_455  A
C414        H419   1.083       .  S
C415        C416   1.416       .  A
C416        C417   1.518       .  S
C417        F421   1.385       .  S
C417        F422   1.383       .  S
C417        F423   1.382       .  S
C420        F424   1.382       .  S
C420        F425   1.383       .  S
C420        F426   1.384       .  S
C427        C428   1.405       .  A
C427        C432   1.408       .  A
C427        H434   1.082       .  S
C428        C429   1.420   1_455  A
C429        C430   1.411       .  A
C429        C436   1.520       .  S
C430        C431   1.409   1_655  A
C430        H435   1.081       .  S
C431        C432   1.426       .  A
C432        C433   1.521       .  S
C433        F437   1.385       .  S
C433        F438   1.382   1_455  S
C433        F439   1.383       .  S
C436        F440   1.384       .  S
C436        F441   1.383   1_655  S
C436        F442   1.385       .  S
C443        C444   1.402   1_455  A
C443        C448   1.406       .  A
C443        H450   1.083       .  S
C444        C445   1.418       .  A
C445        C446   1.406       .  A
C445        C452   1.519       .  S
C446        C447   1.401   1_655  A
C446        H451   1.084       .  S
C447        C448   1.417       .  A
C448        C449   1.519       .  S
C449        F453   1.385       .  S
C449        F454   1.382       .  S
C449        F455   1.382       .  S
C452        F456   1.381       .  S
C452        F457   1.383       .  S
C452        F458   1.385       .  S
C459        C460   1.405       .  A
C459        C464   1.405       .  A
C459        H466   1.082       .  S
C460        C461   1.422   1_556  A
C461        C462   1.405       .  A
C461        C468   1.521       .  S
C462        C463   1.404   1_554  A
C462        H467   1.083       .  S
C463        C464   1.421       .  A
C464        C465   1.522       .  S
C465        F469   1.385       .  S
C465        F470   1.383       .  S
C465        F471   1.383       .  S
C468        F472   1.381       .  S
C468        F473   1.383       .  S
C468        F474   1.385       .  S
C475        C476   1.409       .  A
C475        C480   1.407       .  A
C475        H482   1.079       .  S
C476        C477   1.428   1_554  A
C477        C478   1.408       .  A
C477        C484   1.521       .  S
C478        C479   1.405       .  A
C478        H483   1.082       .  S
C479        C480   1.423   1_556  A
C480        C481   1.523       .  S
C481        F485   1.385       .  S
C481        F486   1.381       .  S
C481        F487   1.384   1_554  S
C484        F488   1.382   1_556  S
C484        F489   1.383       .  S
C484        F490   1.385       .  S
C491        C492   1.409       .  A
C491        C496   1.406       .  A
C491        H498   1.078       .  S
C492        C493   1.429   1_554  A
C493        C494   1.408       .  A
C493        C500   1.521       .  S
C494        C495   1.405       .  A
C494        H499   1.081       .  S
C495        C496   1.423   1_556  A
C496        C497   1.524       .  S
C497        F501   1.385       .  S
C497        F502   1.383       .  S
C497        F503   1.384   1_554  S
C500        F504   1.382   1_556  S
C500        F505   1.383       .  S
C500        F506   1.385       .  S
C507        C508   1.409       .  A
C507        C512   1.406       .  A
C507        H514   1.079       .  S
C508        C509   1.428   1_556  A
C509        C510   1.408       .  A
C509        C516   1.521       .  S
C510        C511   1.405   1_554  A
C510        H515   1.081       .  S
C511        C512   1.423       .  A
C512        C513   1.523       .  S
C513        F517   1.385       .  S
C513        F518   1.383       .  S
C513        F519   1.384   1_556  S
C516        F520   1.382   1_554  S
C516        F521   1.383       .  S
C516        F522   1.385       .  S
