geometry optimzed in LAMMPS
_audit_creation_date              2020-11-30 
_audit_creation_method            'lammps2cif' 
_symmetry_space_group_name_H-M    'P1' 
_symmetry_Int_Tables_number       1 
_symmetry_cell_setting            triclinic 
loop_ 
_symmetry_equiv_pos_as_xyz 
  x,y,z 
_cell_length_a                    25.853901913623314 
_cell_length_b                    25.85416415562488 
_cell_length_c                    25.855387710863162 
_cell_angle_alpha                 90.00052158596513 
_cell_angle_beta                  90.00022463955358 
_cell_angle_gamma                 90.00024390919656 
loop_ 
_atom_site_label 
_atom_site_type_symbol 
_atom_site_fract_x 
_atom_site_fract_y 
_atom_site_fract_z 
_atom_site_charge 
Fe1        Fe  0.28598311  0.80918597  0.50043311     1.65780
Fe2        Fe  0.19141210  0.71472021  0.50001827     1.73250
Fe3        Fe  0.15793901  0.84278994  0.50022540     1.54410
O4          O  0.19443247  0.88584198  0.55791403    -0.82510
O5          O  0.13706990  0.72300657  0.44229928    -0.80820
O6          O  0.27775763  0.86352274  0.55818241    -0.85020
O7          O  0.27796794  0.86567438  0.44479447    -0.79880
O8          O  0.11499639  0.80662109  0.55815214    -0.81650
O9          O  0.24442020  0.69618939  0.44393241    -0.84390
C10         C  0.24051823  0.89150807  0.42667693     0.96370
C11         C  0.24040183  0.89035924  0.57507425     1.03810
O12         O  0.21171422  0.78896225  0.50022692    -1.13380
O13         O  0.24229431  0.69665844  0.55816073    -0.75810
O14         O  0.30446552  0.75614090  0.55649816    -0.79300
O15         O  0.19416445  0.88567024  0.44229149    -0.79990
C16         C  0.28411888  0.71567410  0.57519606     0.95270
O17         O  0.30397207  0.75829579  0.44226871    -0.77940
O18         O  0.13494017  0.72280427  0.55566208    -0.83140
C19         C  0.11025415  0.76037643  0.42541260     0.97900
C20         C  0.10911445  0.76027065  0.57375892     1.03810
O21         O  0.11482748  0.80635059  0.44254385    -0.78780
C22         C  0.28490298  0.71649745  0.42522551     1.02110
Fe23       Fe  0.70573360  0.20018199  0.50021941     1.65780
Fe24       Fe  0.80028734  0.29466212  0.50017086     1.73250
Fe25       Fe  0.83378280  0.16660055  0.50022149     1.54410
O26         O  0.79715302  0.12349267  0.55779995    -0.82510
O27         O  0.85467150  0.28651101  0.44247728    -0.80820
O28         O  0.71382752  0.14583837  0.55797460    -0.85020
O29         O  0.71390169  0.14370477  0.44458522    -0.79880
O30         O  0.87664792  0.20265740  0.55825600    -0.81650
O31         O  0.74733781  0.31334990  0.44407464    -0.84390
C32         C  0.75138785  0.11789422  0.42650836     0.96370
C33         C  0.75115604  0.11899113  0.57490876     1.03810
O34         O  0.77999893  0.22041780  0.50020586    -1.13380
O35         O  0.74933272  0.31253148  0.55829901    -0.75810
O36         O  0.68703899  0.25318774  0.55626693    -0.79300
O37         O  0.79771318  0.12376221  0.44217560    -0.79990
C38         C  0.70740968  0.29355703  0.57514434     0.95270
O39         O  0.68793871  0.25110727  0.44203788    -0.77940
O40         O  0.85673371  0.28647678  0.55583094    -0.83140
C41         C  0.88151612  0.24917098  0.42557119     0.97900
C42         C  0.88254894  0.24898761  0.57389625     1.03810
O43         O  0.87695831  0.20317148  0.44265557    -0.78780
C44         C  0.70696686  0.29300074  0.42517782     1.02110
Fe45       Fe  0.80010055  0.71453079  0.50020321     1.65780
Fe46       Fe  0.70553724  0.80901440  0.49997420     1.73250
Fe47       Fe  0.83358382  0.84258830  0.50015065     1.54420
O48         O  0.87672788  0.80603693  0.55772532    -0.82510
O49         O  0.71373908  0.86332486  0.44219705    -0.80820
O50         O  0.85442671  0.72270664  0.55795573    -0.85020
O51         O  0.85660927  0.72272191  0.44456597    -0.79880
O52         O  0.79745365  0.88538088  0.55818295    -0.81650
O53         O  0.68695775  0.75596791  0.44392013    -0.84390
C54         C  0.88237984  0.76023691  0.42647212     0.96370
C55         C  0.88127458  0.76005479  0.57484131     1.03810
O56         O  0.77980147  0.78877180  0.50011298    -1.13380
O57         O  0.68762194  0.75811764  0.55815387    -0.75810
O58         O  0.74704867  0.69589071  0.55625692    -0.79300
O59         O  0.87645586  0.80655835  0.44212178    -0.79990
C60         C  0.70663213  0.71624113  0.57507685     0.95270
O61         O  0.74923743  0.69660644  0.44202356    -0.77940
O62         O  0.71362117  0.86553360  0.55560903    -0.83140
C63         C  0.75109857  0.89018434  0.42534763     0.97900
C64         C  0.75110750  0.89129148  0.57377333     1.03810
O65         O  0.79704872  0.88570768  0.44256131    -0.78780
C66         C  0.70735376  0.71558305  0.42509609     1.02110
Fe67       Fe  0.49590869  0.29487798  0.19571396     1.65780
Fe68       Fe  0.49613561  0.20037858  0.29023431     1.73250
Fe69       Fe  0.49596748  0.16681984  0.16219949     1.54420
O70         O  0.43835845  0.20338257  0.11909002    -0.82510
O71         O  0.55394965  0.14612525  0.28202761    -0.80820
O72         O  0.43812161  0.28670294  0.14142525    -0.85020
O73         O  0.55156278  0.28669771  0.13922935    -0.79880
O74         O  0.43794233  0.12399611  0.19831763    -0.81650
O75         O  0.55212295  0.25345006  0.30885305    -0.84390
C76         C  0.56970875  0.24918575  0.11349568     0.96370
C77         C  0.42119491  0.24935565  0.11460435     1.03810
O78         O  0.49600148  0.22062935  0.21598715    -1.13380
O79         O  0.43790687  0.25121699  0.30811805    -0.75810
O80         O  0.43985814  0.31351231  0.24876852    -0.79300
O81         O  0.55402848  0.20286694  0.11936921    -0.79990
C82         C  0.42100652  0.29311804  0.28914516     0.95270
O83         O  0.55410303  0.31279207  0.24656663    -0.77940
O84         O  0.44057884  0.14382051  0.28214699    -0.83140
C85         C  0.57077127  0.11923287  0.24468259     0.97900
C86         C  0.42240644  0.11805844  0.24467751     1.03810
O87         O  0.55355174  0.12368712  0.19873353    -0.78780
C88         C  0.57098167  0.29381730  0.28846861     1.02110
Fe89       Fe  0.70605286  0.50449534  0.19560314     1.65780
Fe90       Fe  0.80046986  0.50488715  0.29019369     1.73250
Fe91       Fe  0.83412948  0.50469467  0.16216881     1.54410
O92         O  0.79767600  0.44704755  0.11901186    -0.82510
O93         O  0.85472430  0.56269231  0.28200221    -0.80820
O94         O  0.71435216  0.44671886  0.14133198    -0.85020
O95         O  0.71417327  0.56009858  0.13910793    -0.79880
O96         O  0.87695235  0.44669634  0.19836877    -0.81650
O97         O  0.74736509  0.56089294  0.30870369    -0.84390
C98         C  0.75165366  0.57827221  0.11336147     0.96370
C99         C  0.75171698  0.42985631  0.11449583     1.03810
O100        O  0.78028243  0.50469301  0.21592402    -1.13380
O101        O  0.74964020  0.44667196  0.30812467    -0.75810
O102        O  0.68747040  0.44846308  0.24864705    -0.79300
O103        O  0.79801131  0.56269528  0.11927365    -0.79990
C104        C  0.70780116  0.42969861  0.28908906     0.95270
O105        O  0.68800445  0.56268763  0.24642519    -0.77940
O106        O  0.85700801  0.44930182  0.28217558    -0.83140
C107        C  0.88161257  0.57955232  0.24467611     0.97900
C108        C  0.88279950  0.43111863  0.24473173     1.03810
O109        O  0.87718871  0.56234061  0.19871921    -0.78780
C110        C  0.70695226  0.57965186  0.28830641     1.02110
Fe111      Fe  0.49587089  0.71465512  0.19557788     1.65780
Fe112      Fe  0.49585254  0.80916141  0.29007881     1.73250
Fe113      Fe  0.49587272  0.84271099  0.16203893     1.54410
O114        O  0.55341300  0.80606950  0.11888024    -0.82510
O115        O  0.43808045  0.86344402  0.28197157    -0.80820
O116        O  0.55366287  0.72276440  0.14129599    -0.85020
O117        O  0.44024912  0.72286497  0.13908810    -0.79880
O118        O  0.55397281  0.88552539  0.19806339    -0.81650
O119        O  0.43984066  0.75613032  0.30880592    -0.84390
C120        C  0.42209549  0.76036920  0.11335773     0.96370
C121        C  0.57057370  0.76008616  0.11443112     1.03810
O122        O  0.49586712  0.78890757  0.21583423    -1.13380
O123        O  0.55405173  0.75828899  0.30786700    -0.75810
O124        O  0.55189142  0.69591989  0.24860902    -0.79300
O125        O  0.43774732  0.80669611  0.11925172    -0.79990
C126        C  0.57083535  0.71632934  0.28892793     0.95270
O127        O  0.43766368  0.69685839  0.24645382    -0.77940
O128        O  0.55144095  0.86567998  0.28188908    -0.83140
C129        C  0.42120886  0.89034262  0.24466052     0.97900
C130        C  0.56957059  0.89145096  0.24440321     1.03810
O131        O  0.43835194  0.88588499  0.19867516    -0.78780
C132        C  0.42088534  0.71581179  0.28840912     1.02110
Fe133      Fe  0.28590864  0.50491968  0.19580428     1.65780
Fe134      Fe  0.19147312  0.50470907  0.29038751     1.73250
Fe135      Fe  0.15784052  0.50475864  0.16236303     1.54420
O136        O  0.19433050  0.56234365  0.11918357    -0.82510
O137        O  0.13718703  0.44692591  0.28227886    -0.80820
O138        O  0.27764497  0.56273719  0.14155210    -0.85020
O139        O  0.27775117  0.44932859  0.13927924    -0.79880
O140        O  0.11504819  0.56282281  0.19844042    -0.81650
O141        O  0.24455412  0.44867235  0.30898718    -0.84390
C142        C  0.24024883  0.43113179  0.11357663     0.96370
C143        C  0.24027368  0.57957986  0.11470478     1.03810
O144        O  0.21167823  0.50479385  0.21612308    -1.13380
O145        O  0.24233056  0.56290613  0.30823520    -0.75810
O146        O  0.30458001  0.56092797  0.24885118    -0.79300
O147        O  0.19389980  0.44669809  0.11953346    -0.79990
C148        C  0.28421953  0.57978630  0.28923294     0.95270
O149        O  0.30384669  0.44669521  0.24663962    -0.77940
O150        O  0.13495791  0.56033993  0.28225611    -0.83140
C151        C  0.11031968  0.43002141  0.24495935     0.97900
C152        C  0.10919078  0.57848109  0.24476640     1.03810
O153        O  0.11476478  0.44717810  0.19898387    -0.78780
C154        C  0.28491065  0.42980826  0.28856286     1.02110
Fe155      Fe  0.28573112  0.50468742  0.80482735     1.65780
Fe156      Fe  0.19132627  0.50469997  0.71021993     1.73250
Fe157      Fe  0.15765061  0.50469173  0.83824174     1.54420
O158        O  0.19420455  0.44710323  0.88141906    -0.82510
O159        O  0.13698823  0.56244365  0.71827226    -0.80820
O160        O  0.27755423  0.44697155  0.85917350    -0.85020
O161        O  0.27747492  0.56036665  0.86124726    -0.79880
O162        O  0.11485262  0.44663856  0.80213416    -0.81650
O163        O  0.24433868  0.56074125  0.69155278    -0.84390
C164        C  0.23996710  0.57844964  0.88702336     0.96370
C165        C  0.24020432  0.43001048  0.88596595     1.03810
O166        O  0.21150363  0.50469548  0.78449376    -1.13380
O167        O  0.24225892  0.44652640  0.69247780    -0.75810
O168        O  0.30448444  0.44859411  0.75189059    -0.79300
O169        O  0.19364993  0.56276239  0.88113190    -0.79990
C170        C  0.28415350  0.42968706  0.71151616     0.95270
O171        O  0.30361995  0.56282260  0.75389813    -0.77940
O172        O  0.13484694  0.44907439  0.71834070    -0.83140
C173        C  0.11010976  0.57936860  0.75557659     0.97900
C174        C  0.10901568  0.43098675  0.75580187     1.03810
O175        O  0.11456639  0.56226018  0.80157598    -0.78780
C176        C  0.28468128  0.57964019  0.71195178     1.02110
Fe177      Fe  0.49579135  0.80906420  0.71021929     1.65780
Fe178      Fe  0.49559507  0.71452423  0.80469781     1.73250
Fe179      Fe  0.49577660  0.84256974  0.83827031     1.54420
O180        O  0.55338072  0.88567929  0.80171540    -0.82510
O181        O  0.43781740  0.72274149  0.85900273    -0.80820
O182        O  0.55353500  0.86339548  0.71838436    -0.85020
O183        O  0.44013490  0.86552431  0.71842558    -0.79880
O184        O  0.55381765  0.80643245  0.88105563    -0.81650
O185        O  0.43954025  0.69592092  0.75168050    -0.84390
C186        C  0.42205621  0.89131430  0.75592782     0.96370
C187        C  0.57047895  0.89021076  0.75572617     1.03810
O188        O  0.49572314  0.78878133  0.78445680    -1.13380
O189        O  0.55375970  0.69661540  0.75378190    -0.75810
O190        O  0.55185130  0.75604439  0.69156182    -0.79300
O191        O  0.43774670  0.88544922  0.80224113    -0.79990
C192        C  0.57066817  0.71562495  0.71189985     0.95270
O193        O  0.43763306  0.75817699  0.69230207    -0.77940
O194        O  0.55125014  0.72261036  0.86117841    -0.83140
C195        C  0.42093430  0.76010390  0.88583582     0.97900
C196        C  0.56943179  0.76008929  0.88692709     1.03810
O197        O  0.43815688  0.80605338  0.88137674    -0.78780
C198        C  0.42072524  0.71628876  0.71128342     1.02110
Fe199      Fe  0.70574936  0.50464613  0.80458371     1.65780
Fe200      Fe  0.80015877  0.50447421  0.70996105     1.73250
Fe201      Fe  0.83382926  0.50461372  0.83797808     1.54410
O202        O  0.79731078  0.56219992  0.88114970    -0.82510
O203        O  0.85446208  0.44668115  0.71810093    -0.80820
O204        O  0.71396416  0.56239151  0.85891470    -0.85020
O205        O  0.71400974  0.44896254  0.86103928    -0.79880
O206        O  0.87658878  0.56265613  0.80183270    -0.81650
O207        O  0.74709510  0.44845542  0.69137376    -0.84390
C208        C  0.75154427  0.43085888  0.88677623     0.96370
C209        C  0.75132989  0.57931967  0.88571119     1.03810
O210        O  0.77997313  0.50457966  0.78423431    -1.13380
O211        O  0.74925368  0.56266274  0.69212944    -0.75810
O212        O  0.68704978  0.56072447  0.75157849    -0.79300
O213        O  0.79785202  0.44655193  0.88086048    -0.79990
C214        C  0.70737762  0.57956231  0.71116106     0.95270
O215        O  0.68778823  0.44649522  0.75369834    -0.77940
O216        O  0.85668611  0.56008901  0.71801970    -0.83140
C217        C  0.88134963  0.42982627  0.75543659     0.97900
C218        C  0.88246823  0.57824718  0.75548656     1.03810
O219        O  0.87691459  0.44703638  0.80138998    -0.78780
C220        C  0.70672547  0.42961688  0.71177823     1.02110
Fe221      Fe  0.49567964  0.20012390  0.71043621     1.65780
Fe222      Fe  0.49610496  0.29464103  0.80491724     1.73250
Fe223      Fe  0.49588572  0.16659182  0.83848302     1.54410
O224        O  0.43826185  0.12345086  0.80198124    -0.82510
O225        O  0.55396188  0.28639251  0.85911251    -0.80820
O226        O  0.43787546  0.14588520  0.71869359    -0.85020
O227        O  0.55124881  0.14358847  0.71852108    -0.79880
O228        O  0.43784644  0.20274001  0.88128765    -0.81650
O229        O  0.55206919  0.31319935  0.75177981    -0.84390
C230        C  0.56944668  0.11784015  0.75598755     0.96370
C231        C  0.42104192  0.11899754  0.75603043     1.03810
O232        O  0.49589352  0.22038735  0.78467589    -1.13380
O233        O  0.43785010  0.31261173  0.75414535    -0.75810
O234        O  0.43968019  0.25321878  0.69189558    -0.79300
O235        O  0.55390172  0.12374569  0.80235270    -0.79990
C236        C  0.42089595  0.29362864  0.71227604     0.95270
O237        O  0.55389130  0.25092386  0.69241737    -0.77940
O238        O  0.44054323  0.28657689  0.86147667    -0.83140
C239        C  0.57079765  0.24905032  0.88599672     0.97900
C240        C  0.42229097  0.24910519  0.88718104     1.03810
O241        O  0.55352585  0.20311153  0.88159113    -0.78780
C242        C  0.57083013  0.29281683  0.71136052     1.02110
Fe243      Fe  0.28623067  0.20038252  0.50028260     1.65990
Fe244      Fe  0.19167683  0.29487959  0.50048210     1.73250
Fe245      Fe  0.15818055  0.16682712  0.50030588     1.54420
O246        O  0.19479326  0.12371247  0.44274437    -0.82510
O247        O  0.13736949  0.28665700  0.55825786    -0.80820
O248        O  0.27811416  0.14604847  0.44252423    -0.85020
O249        O  0.27805628  0.14388204  0.55593716    -0.79880
O250        O  0.11536383  0.20291446  0.44226519    -0.81650
O251        O  0.24471291  0.31350832  0.55652063    -0.84390
C252        C  0.24054061  0.11811575  0.57403914     0.96370
C253        C  0.24077676  0.11919847  0.42561907     1.03810
O254        O  0.21196825  0.22063494  0.50035511    -1.13380
O255        O  0.24254933  0.31279098  0.44228236    -0.75810
O256        O  0.30484561  0.25343613  0.44421296    -0.79300
O257        O  0.19422357  0.12400882  0.55836372    -0.79990
C258        C  0.28444167  0.29381206  0.42536161     0.95270
O259        O  0.30410466  0.25126150  0.55846609    -0.77940
O260        O  0.13514111  0.28676044  0.44488032    -0.83140
C261        C  0.11047682  0.24929866  0.57505892     0.97900
C262        C  0.10939363  0.24926749  0.42671935     1.03810
O263        O  0.11498519  0.20334704  0.55785495    -0.78780
C264        C  0.28509392  0.29313716  0.57537465     1.02110
C265        C  0.37661690  0.31892437  0.68670448     0.02290
C266        C  0.35418799  0.36332678  0.70828866    -0.13860
C267        C  0.30978524  0.38539727  0.68630168    -0.00210
C268        C  0.28835212  0.36310010  0.64176879    -0.12390
C269        C  0.31029486  0.31867492  0.61972613     0.02280
C270        C  0.35469071  0.29710198  0.64215622    -0.11810
H271        H  0.37055261  0.37995790  0.74306169     0.07880
H272        H  0.25368569  0.37958825  0.62500486     0.05400
H273        H  0.37142828  0.26242593  0.62566908     0.05250
C274        C  0.37670324  0.31868267  0.31443033     0.02290
C275        C  0.35439919  0.29716358  0.35892704    -0.13860
C276        C  0.30996298  0.31906638  0.38100993    -0.00210
C277        C  0.28837698  0.36349687  0.35863336    -0.12390
C278        C  0.31020525  0.38550341  0.31412188     0.02280
C279        C  0.35462509  0.36311994  0.29252478    -0.11810
H280        H  0.37089079  0.26247514  0.37562914     0.07880
H281        H  0.25368741  0.38020366  0.37513086     0.05400
H282        H  0.37126737  0.37955111  0.25778859     0.05250
C283        C  0.61506553  0.31840493  0.68600048     0.02290
C284        C  0.63705733  0.36291543  0.70783199    -0.13860
C285        C  0.68144338  0.38532616  0.68621863    -0.00210
C286        C  0.70330207  0.36331505  0.64173549    -0.12390
C287        C  0.68180666  0.31881435  0.61943106     0.02280
C288        C  0.63740771  0.29685324  0.64153841    -0.11810
H289        H  0.62039160  0.37937258  0.74254936     0.07880
H290        H  0.73796480  0.38005946  0.62522181     0.05400
H291        H  0.62099170  0.26209872  0.62490063     0.05250
C292        C  0.68177252  0.62385626  0.68590111     0.02290
C293        C  0.70327523  0.64620504  0.64142045    -0.13860
C294        C  0.68137031  0.69066536  0.61939120    -0.00210
C295        C  0.63694002  0.71222278  0.64179373    -0.12390
C296        C  0.61494675  0.69034472  0.68628860     0.02280
C297        C  0.63733223  0.64590107  0.70783163    -0.11810
H298        H  0.73796956  0.62973447  0.62469647     0.07880
H299        H  0.62023523  0.74692650  0.62534089     0.05400
H300        H  0.62091155  0.62922333  0.74255742     0.05250
C301        C  0.30995496  0.62390952  0.68634345     0.02290
C302        C  0.28807552  0.64593108  0.64186339    -0.13860
C303        C  0.30965224  0.69036648  0.61949357    -0.00210
C304        C  0.35411401  0.71224696  0.64153749    -0.12390
C305        C  0.37644787  0.69071221  0.68599816     0.02280
C306        C  0.35440128  0.64626667  0.70789576    -0.11810
H307        H  0.25335849  0.62925179  0.62540464     0.07880
H308        H  0.37060062  0.74694408  0.62484181     0.05400
H309        H  0.37108028  0.62981894  0.74260947     0.05250
C310        C  0.37660262  0.69058124  0.31403765     0.02290
C311        C  0.35423500  0.64611858  0.29253045    -0.13860
C312        C  0.30980038  0.62408923  0.31446773    -0.00210
C313        C  0.28827992  0.64646457  0.35891568    -0.12390
C314        C  0.31017149  0.69094370  0.38091512     0.02280
C315        C  0.35459511  0.71250248  0.35850407    -0.11810
H316        H  0.37067118  0.62940784  0.25782997     0.07880
H317        H  0.25359175  0.62998887  0.37564349     0.05400
H318        H  0.37128442  0.74723436  0.37492801     0.05250
C319        C  0.68161519  0.62392167  0.31386014     0.02290
C320        C  0.70342746  0.64590994  0.35838403    -0.13860
C321        C  0.68183351  0.69032222  0.38076635    -0.00210
C322        C  0.63739781  0.71221781  0.35869986    -0.12390
C323        C  0.61511098  0.69072268  0.31419080     0.02280
C324        C  0.63719419  0.64629991  0.29225939    -0.11810
H325        H  0.73812045  0.62920909  0.37488547     0.07880
H326        H  0.62089756  0.74689402  0.37542209     0.05400
H327        H  0.62057045  0.62989228  0.25750451     0.05250
C328        C  0.68221530  0.38541754  0.31436478     0.02290
C329        C  0.70374371  0.36302600  0.35881048    -0.13860
C330        C  0.68176704  0.31860997  0.38086376    -0.00210
C331        C  0.63728338  0.29713526  0.35850937    -0.12390
C332        C  0.61529132  0.31904659  0.31404208     0.02280
C333        C  0.63771923  0.36344710  0.29247943    -0.11810
H334        H  0.73848774  0.37943246  0.37549200     0.07880
H335        H  0.62052634  0.26246230  0.37498503     0.05400
H336        H  0.62127672  0.38015117  0.25777889     0.05250
Fe337      Fe  0.69133675  0.00444128  0.79024798     1.65780
Fe338      Fe  0.78574026  0.00465481  0.69563510     1.73250
Fe339      Fe  0.65765823  0.00462200  0.66222458     1.54410
O340        O  0.61457257  0.94699485  0.69878070    -0.82510
O341        O  0.77753004  0.06241110  0.64132950    -0.80820
O342        O  0.63696376  0.94673210  0.78208518    -0.85020
O343        O  0.63489334  0.06011334  0.78222823    -0.79880
O344        O  0.69368079  0.94660225  0.61928667    -0.81650
O345        O  0.80444684  0.06070479  0.74864749    -0.84390
C346        C  0.60905220  0.07823481  0.74478966     0.96370
C347        C  0.61009830  0.92983902  0.74475524     1.03810
O348        O  0.71151358  0.00457795  0.71597275    -1.13380
O349        O  0.80368405  0.94647652  0.74649064    -0.75810
O350        O  0.74431715  0.94834209  0.80876100    -0.79300
O351        O  0.61486509  0.06261831  0.69843814    -0.79990
C352        C  0.78470062  0.92953284  0.78836284     0.95270
O353        O  0.74230560  0.06255787  0.80815536    -0.77940
O354        O  0.77750756  0.94901079  0.63917187    -0.83140
C355        C  0.74017469  0.07936329  0.61453707     0.97900
C356        C  0.74000080  0.93092045  0.61339703     1.03810
O357        O  0.69418084  0.06226142  0.61909144    -0.78780
C358        C  0.78416248  0.07948517  0.78910865     1.02110
C359        C  0.80980217  0.12374354  0.81439613     0.02290
C360        C  0.85423017  0.14580110  0.79244061    -0.13860
C361        C  0.87664258  0.19021764  0.81400895    -0.00210
C362        C  0.85469820  0.21205092  0.85854124    -0.12390
C363        C  0.81028166  0.19049998  0.88095735     0.02280
C364        C  0.78834281  0.14605933  0.85891867    -0.11810
H365        H  0.87061567  0.12916386  0.75767888     0.07880
H366        H  0.87143066  0.24673462  0.87501591     0.05400
H367        H  0.75365237  0.12959540  0.87565528     0.05250
Fe368      Fe  0.99605414  0.21456734  0.69569618     1.65780
Fe369      Fe  0.99562996  0.30909223  0.79018134     1.73250
Fe370      Fe  0.99585983  0.34261744  0.66213295     1.54420
O371        O  0.05356192  0.30615003  0.61909422    -0.82510
O372        O  0.93783332  0.36335459  0.78188683    -0.80820
O373        O  0.05384068  0.22282847  0.64140824    -0.85020
O374        O  0.94039682  0.22263823  0.63921587    -0.79880
O375        O  0.05381544  0.38549928  0.69828984    -0.81650
O376        O  0.93961477  0.25601280  0.80873352    -0.84390
C377        C  0.92223781  0.26011436  0.61344478     0.96370
C378        C  0.07076623  0.26019766  0.61461522     1.03810
O379        O  0.99584548  0.28882121  0.71594198    -1.13380
O380        O  0.05383341  0.25826404  0.80820329    -0.75810
O381        O  0.05211399  0.19605965  0.74875576    -0.79300
O382        O  0.93788782  0.30645228  0.61927526    -0.79990
C383        C  0.07084300  0.21642132  0.78920323     0.95270
O384        O  0.93788326  0.19653727  0.74656257    -0.77940
O385        O  0.05122792  0.36561438  0.78210908    -0.83140
C386        C  0.92097206  0.39019332  0.74452155     0.97900
C387        C  0.06939592  0.39138399  0.74464160     1.03810
O388        O  0.93818102  0.38570476  0.69857399    -0.78780
C389        C  0.92089544  0.21554481  0.78840871     1.02110
Fe390      Fe  0.20577389  0.00468123  0.69583547     1.65780
Fe391      Fe  0.30018398  0.00472889  0.79045335     1.73250
Fe392      Fe  0.33385345  0.00469395  0.66243614     1.54410
O393        O  0.29730943  0.94713865  0.61923933    -0.82510
O394        O  0.35454298  0.06247147  0.78238530    -0.80820
O395        O  0.21396802  0.94692920  0.64150222    -0.85020
O396        O  0.21405203  0.06035936  0.63939052    -0.79880
O397        O  0.37659368  0.94660901  0.69851464    -0.81650
O398        O  0.24717020  0.06079990  0.80908815    -0.84390
C399        C  0.25158597  0.07847464  0.61366642     0.96370
C400        C  0.25133145  0.93000163  0.61469999     1.03810
O401        O  0.27999891  0.00470242  0.71618135    -1.13380
O402        O  0.24923266  0.94657169  0.80822739    -0.75810
O403        O  0.18701358  0.94860097  0.74880440    -0.79300
O404        O  0.29789599  0.06279344  0.61959051    -0.79990
C405        C  0.20734220  0.92971387  0.78919302     0.95270
O406        O  0.18787712  0.06284287  0.74674730    -0.77940
O407        O  0.35665776  0.94906319  0.78232321    -0.83140
C408        C  0.38142176  0.07937185  0.74506725     0.97900
C409        C  0.38244468  0.93094675  0.74483683     1.03810
O410        O  0.37696035  0.06223192  0.69908621    -0.78780
C411        C  0.20682461  0.07969239  0.78867953     1.02110
C412        C  0.11512825  0.19087091  0.81452640     0.02290
C413        C  0.13715396  0.14639109  0.79266630    -0.13860
C414        C  0.18156576  0.12400003  0.81425277    -0.00210
C415        C  0.20343457  0.14602239  0.85873358    -0.12390
C416        C  0.18190173  0.19049596  0.88107247     0.02280
C417        C  0.13747200  0.21242346  0.85898710    -0.11810
H418        H  0.12047822  0.12992924  0.75795584     0.07880
H419        H  0.23812070  0.12930241  0.87522439     0.05400
H420        H  0.12102347  0.24714995  0.87564795     0.05250
Fe421      Fe  0.99562395  0.79465599  0.69555457     1.65780
Fe422      Fe  0.99582348  0.70012751  0.79003017     1.73250
Fe423      Fe  0.99579082  0.66660872  0.66197891     1.54420
O424        O  0.93817684  0.70315149  0.61885210    -0.82510
O425        O  0.05358516  0.64584272  0.78187823    -0.80820
O426        O  0.93784720  0.78645418  0.64126181    -0.85020
O427        O  0.05126007  0.78656955  0.63907486    -0.79880
O428        O  0.93774156  0.62373816  0.69802119    -0.81650
O429        O  0.05185479  0.75317266  0.80869908    -0.84390
C430        C  0.06944750  0.74910078  0.61332075     0.96370
C431        C  0.92096210  0.74911019  0.61440930     1.03810
O432        O  0.99575032  0.72039921  0.71579018    -1.13380
O433        O  0.93763204  0.75096726  0.80791887    -0.75810
O434        O  0.93957135  0.81325043  0.74857131    -0.79300
O435        O  0.05384724  0.70274816  0.61918848    -0.79990
C436        C  0.92072908  0.79285636  0.78894165     0.95270
O437        O  0.05380123  0.81256546  0.74645128    -0.77940
O438        O  0.94020690  0.64363778  0.78183990    -0.83140
C439        C  0.07050197  0.61898985  0.74455633     0.97900
C440        C  0.92209057  0.61786097  0.74435013     1.03810
O441        O  0.05338574  0.62348171  0.69856481    -0.78780
C442        C  0.07069026  0.79357541  0.78834803     1.02110
C443        C  0.11495649  0.81886636  0.81397025     0.02290
C444        C  0.13732774  0.86332760  0.79244200    -0.13860
C445        C  0.18173179  0.88540546  0.81441332    -0.00210
C446        C  0.20321304  0.86307320  0.85890543    -0.12390
C447        C  0.18133254  0.81859574  0.88091364     0.02280
C448        C  0.13693987  0.79699725  0.85847734    -0.11810
H449        H  0.12092346  0.87999727  0.75770394     0.07880
H450        H  0.23787463  0.87957793  0.87566155     0.05400
H451        H  0.12025649  0.76227518  0.87491699     0.05250
Fe452      Fe  0.30011452  0.79485665  0.00004291     1.65780
Fe453      Fe  0.20555273  0.70037469  0.00044572     1.73250
Fe454      Fe  0.33359780  0.66679454  0.00022770     1.54410
O455        O  0.37670641  0.70324997  0.94258365    -0.82510
O456        O  0.21379489  0.64606806  0.05822214    -0.80820
O457        O  0.35442039  0.78658154  0.94227783    -0.85020
O458        O  0.35663556  0.78675078  0.05566544    -0.79880
O459        O  0.29742207  0.62395270  0.94225983    -0.81650
O460        O  0.18704999  0.75345492  0.05650454    -0.84390
C461        C  0.38242205  0.74926120  0.07378245     0.96370
C462        C  0.38125110  0.74920819  0.92541662     1.03810
O463        O  0.27981613  0.72061448  0.00024012    -1.13380
O464        O  0.18756294  0.75123849  0.94225979    -0.75810
O465        O  0.24705437  0.81340376  0.94398667    -0.79300
O466        O  0.37650371  0.70291866  0.05818168    -0.79990
C467        C  0.20659874  0.79306353  0.92524525     0.95270
O468        O  0.24926698  0.81289113  0.05822608    -0.77940
O469        O  0.21359824  0.64384942  0.94480759    -0.83140
C470        C  0.25116078  0.61922389  0.07508123     0.97900
C471        C  0.25107646  0.61807089  0.92665384     1.03810
O472        O  0.29711203  0.62372279  0.05788092    -0.78780
C473        C  0.20742331  0.79389747  0.07523978     1.02110
Fe474      Fe  0.99585479  0.79491072  0.30468695     1.65780
Fe475      Fe  0.99585029  0.70039680  0.21017703     1.73250
Fe476      Fe  0.99586884  0.66685403  0.33821791     1.54420
O477        O  0.05344291  0.70345245  0.38133340    -0.82510
O478        O  0.93812460  0.64603938  0.21830479    -0.80820
O479        O  0.05360420  0.78678685  0.35903728    -0.85020
O480        O  0.94015885  0.78668985  0.36112247    -0.79880
O481        O  0.05393612  0.62402731  0.30218400    -0.81650
O482        O  0.93977254  0.75337221  0.19146699    -0.84390
C483        C  0.92205832  0.74917748  0.38688563     0.96370
C484        C  0.07056876  0.74943824  0.38583653     1.03810
O485        O  0.99585857  0.72065860  0.28442171    -1.13380
O486        O  0.05399536  0.75134274  0.19236070    -0.75810
O487        O  0.05194005  0.81363165  0.25170964    -0.79300
O488        O  0.93777791  0.70287195  0.38102953    -0.79990
C489        C  0.07083555  0.79326234  0.21134579     0.95270
O490        O  0.93770079  0.81273375  0.25374029    -0.77940
O491        O  0.05151628  0.64393769  0.21837080    -0.83140
C492        C  0.92120805  0.61919823  0.25564204     0.97900
C493        C  0.06960037  0.61814134  0.25586524     1.03810
O494        O  0.93831721  0.62371222  0.30162956    -0.78780
C495        C  0.92086715  0.79373595  0.21182406     1.02110
C496        C  0.18167489  0.88562884  0.18645816     0.02290
C497        C  0.20351882  0.86361285  0.14195372    -0.13860
C498        C  0.18190976  0.81920327  0.11956072    -0.00210
C499        C  0.13744128  0.79734393  0.14160408    -0.12390
C500        C  0.11513102  0.81885847  0.18609104     0.02280
C501        C  0.13721973  0.86327778  0.20802207    -0.11810
H502        H  0.23823902  0.88028067  0.12548591     0.07880
H503        H  0.12092881  0.76267089  0.12488061     0.05400
H504        H  0.12056975  0.87970429  0.24275688     0.05250
Fe505      Fe  0.78596561  0.70015793  0.99996449     1.65780
Fe506      Fe  0.69139936  0.79462567  0.00018771     1.73250
Fe507      Fe  0.65791844  0.66655913  0.00015202     1.54410
O508        O  0.69442118  0.62347445  0.94249152    -0.82510
O509        O  0.63702949  0.78644749  0.05788636    -0.80820
O510        O  0.77775776  0.64576338  0.94226687    -0.85020
O511        O  0.77792763  0.64373240  0.05565533    -0.79880
O512        O  0.61496133  0.70264252  0.94218832    -0.81650
O513        O  0.74437908  0.81326477  0.05628563    -0.84390
C514        C  0.74047808  0.61788896  0.07375465     0.96370
C515        C  0.74039828  0.61894594  0.92535087     1.03810
O516        O  0.71169681  0.72038338  0.00010463    -1.13380
O517        O  0.74230661  0.81255942  0.94204710    -0.75810
O518        O  0.80450116  0.75310924  0.94384018    -0.79300
O519        O  0.69413129  0.62371232  0.05811736    -0.79990
C520        C  0.78414249  0.79352763  0.92506221     0.95270
O521        O  0.80390437  0.75113461  0.05807985    -0.77940
O522        O  0.63495516  0.78644807  0.94452279    -0.83140
C523        C  0.61023877  0.74909665  0.07484989     0.97900
C524        C  0.60910526  0.74896330  0.92649544     1.03810
O525        O  0.61482857  0.70308815  0.05780330    -0.78780
C526        C  0.78483983  0.79296704  0.07505475     1.02110
C527        C  0.80970792  0.88540493  0.18583791     0.02290
C528        C  0.85417767  0.86340006  0.20773473    -0.13860
C529        C  0.87656713  0.81896055  0.18620591    -0.00210
C530        C  0.85455525  0.79704229  0.14174161    -0.12390
C531        C  0.81009478  0.81856227  0.11936088     0.02280
C532        C  0.78816865  0.86301789  0.14139402    -0.11810
H533        H  0.87062776  0.88011099  0.24242972     0.07880
H534        H  0.87127248  0.76233404  0.12529677     0.05400
H535        H  0.75344916  0.87945963  0.12470106     0.05250
Fe536      Fe  0.20574843  0.30919785  0.00025846     1.65780
Fe537      Fe  0.30030129  0.21471389  0.00044149     1.73250
Fe538      Fe  0.33380018  0.34277383  0.00028424     1.54410
O539        O  0.29719874  0.38584424  0.94266049    -0.82510
O540        O  0.35468196  0.22293678  0.05813865    -0.80820
O541        O  0.21386349  0.36353913  0.94251819    -0.85020
O542        O  0.21388720  0.36567451  0.05589865    -0.79880
O543        O  0.37669749  0.30663136  0.94230936    -0.81650
O544        O  0.24735425  0.19612165  0.05655466    -0.84390
C545        C  0.25136808  0.39150155  0.07396430     0.96370
C546        C  0.25119526  0.39037270  0.92557675     1.03810
O547        O  0.28001529  0.28895960  0.00032067    -1.13380
O548        O  0.24935427  0.19676665  0.94231012    -0.75810
O549        O  0.18711525  0.25617431  0.94419598    -0.79300
O550        O  0.29769275  0.38565485  0.05828144    -0.79990
C551        C  0.20747351  0.21576548  0.92538216     0.95270
O552        O  0.18790149  0.25831183  0.05844291    -0.77940
O553        O  0.35675386  0.22281749  0.94478725    -0.83140
C554        C  0.38151217  0.26029784  0.07502680     0.97900
C555        C  0.38259355  0.26028149  0.92670992     1.03810
O556        O  0.37695030  0.30627897  0.05790455    -0.78780
C557        C  0.20696147  0.21647576  0.07539477     1.02110
Fe558      Fe  0.20608097  0.00493688  0.30486309     1.65780
Fe559      Fe  0.30049630  0.00469996  0.21027491     1.73250
Fe560      Fe  0.33415345  0.00474647  0.33830174     1.54420
O561        O  0.29767934  0.06236051  0.38149721    -0.82510
O562        O  0.35473414  0.94688127  0.21837113    -0.80820
O563        O  0.21435722  0.06269004  0.35916257    -0.85020
O564        O  0.21421618  0.94930591  0.36132887    -0.79880
O565        O  0.37697686  0.06278764  0.30218851    -0.81650
O566        O  0.24738062  0.94872281  0.19165116    -0.84390
C567        C  0.25169653  0.93112842  0.38707207     0.96370
C568        C  0.25171875  0.07955721  0.38600075     1.03810
O569        O  0.28030962  0.00478790  0.28454524    -1.13380
O570        O  0.24969059  0.06295147  0.19246731    -0.75810
O571        O  0.18746369  0.06100599  0.25187731    -0.79300
O572        O  0.29805324  0.94670460  0.38115684    -0.79990
C573        C  0.20783001  0.07986648  0.21150136     0.95270
O574        O  0.18808258  0.94676875  0.25398521    -0.77940
O575        O  0.35704575  0.06026147  0.21838008    -0.83140
C576        C  0.38162530  0.92998335  0.25567527     0.97900
C577        C  0.38283082  0.07840929  0.25584538     1.03810
O578        O  0.37720817  0.94714364  0.30165728    -0.78780
C579        C  0.20700408  0.92988969  0.21205417     1.02110
Fe580      Fe  0.99594533  0.21469054  0.30491567     1.65780
Fe581      Fe  0.99614366  0.30918600  0.21040390     1.73250
Fe582      Fe  0.99596029  0.34275026  0.33844046     1.54420
O583        O  0.93836240  0.30613926  0.38155139    -0.82510
O584        O  0.05390843  0.36346948  0.21860125    -0.80820
O585        O  0.93813020  0.22282929  0.35916494    -0.85020
O586        O  0.05155019  0.22288209  0.36142439    -0.79880
O587        O  0.93791299  0.38556099  0.30230666    -0.81650
O588        O  0.05217892  0.25615822  0.19180758    -0.84390
C589        C  0.06970516  0.26038351  0.38715924     0.96370
C590        C  0.92120230  0.26015727  0.38600846     1.03810
O591        O  0.99601123  0.28894151  0.28465145    -1.13380
O592        O  0.93795333  0.25831941  0.19250730    -0.75810
O593        O  0.93993734  0.19601235  0.25183697    -0.79300
O594        O  0.05404279  0.30671181  0.38128159    -0.79990
C595        C  0.92107790  0.21640415  0.21146524     0.95270
O596        O  0.05418474  0.19683168  0.25410759    -0.77940
O597        O  0.94055434  0.36570379  0.21848277    -0.83140
C598        C  0.07073176  0.39037428  0.25593122     0.97900
C599        C  0.92237652  0.39147786  0.25593990     1.03810
O600        O  0.05353236  0.38591914  0.30189214    -0.78780
C601        C  0.07106721  0.21581548  0.21221282     1.02110
C602        C  0.11539208  0.19060204  0.18665717     0.02290
C603        C  0.13735425  0.21247983  0.14215719    -0.13860
C604        C  0.18178711  0.19094628  0.11975954    -0.00210
C605        C  0.20375142  0.14653143  0.14181002    -0.12390
C606        C  0.18226323  0.12418399  0.18628892     0.02280
C607        C  0.13782253  0.14620536  0.20822888    -0.11810
H608        H  0.12060371  0.24715326  0.12567642     0.07880
H609        H  0.23844782  0.13007443  0.12508255     0.05400
H610        H  0.12141161  0.12952576  0.24295687     0.05250
Fe611      Fe  0.78622500  0.30900538  0.00022371     1.65780
Fe612      Fe  0.69167361  0.21451229  0.00021075     1.73250
Fe613      Fe  0.65817617  0.34256825  0.00021408     1.54410
O614        O  0.69479516  0.38571666  0.05774209    -0.82510
O615        O  0.63734769  0.22264258  0.94244228    -0.80820
O616        O  0.77812110  0.36339082  0.05794264    -0.85020
O617        O  0.77802463  0.36545483  0.94451362    -0.79880
O618        O  0.61535125  0.30657731  0.05829884    -0.81650
O619        O  0.74469526  0.19575709  0.94417776    -0.84390
C620        C  0.74050747  0.39122351  0.92641647     0.96370
C621        C  0.74078050  0.39022957  0.07486289     1.03810
O622        O  0.71196442  0.28875622  0.00021388    -1.13380
O623        O  0.74256896  0.19670913  0.05841022    -0.75810
O624        O  0.80489747  0.25602379  0.05634075    -0.79300
O625        O  0.69419852  0.38534388  0.94211449    -0.79990
C626        C  0.78448929  0.21568586  0.07526281     0.95270
O627        O  0.80405267  0.25803621  0.94209087    -0.77940
O628        O  0.63516125  0.22273877  0.05582762    -0.83140
C629        C  0.61048145  0.25998622  0.92556820     0.97900
C630        C  0.60940141  0.26025428  0.07392759     1.03810
O631        O  0.61499981  0.30596623  0.94270053    -0.78780
C632        C  0.78506223  0.21611042  0.92526960     1.02110
Fe633      Fe  0.78590005  0.00448241  0.30464621     1.65780
Fe634      Fe  0.69147364  0.00489332  0.21005742     1.73250
Fe635      Fe  0.65782719  0.00469163  0.33807941     1.54410
O636        O  0.69427108  0.94705082  0.38121988    -0.82510
O637        O  0.63723852  0.06272257  0.21826609    -0.80820
O638        O  0.77758906  0.94665804  0.35887713    -0.85020
O639        O  0.77777009  0.06006461  0.36119041    -0.79880
O640        O  0.61501834  0.94669167  0.30190703    -0.81650
O641        O  0.74460235  0.06089841  0.19155547    -0.84390
C642        C  0.74027045  0.07825937  0.38690189     0.96370
C643        C  0.74021218  0.92981786  0.38571501     1.03810
O644        O  0.71167150  0.00468803  0.28432316    -1.13380
O645        O  0.74228577  0.94666462  0.19210937    -0.75810
O646        O  0.80449113  0.94847897  0.25155050    -0.79300
O647        O  0.69391988  0.06269109  0.38095780    -0.79990
C648        C  0.78414048  0.92970186  0.21111978     0.95270
O649        O  0.80393636  0.06271724  0.25386264    -0.77940
O650        O  0.63491201  0.94930387  0.21808986    -0.83140
C651        C  0.61036238  0.07957624  0.25560544     0.97900
C652        C  0.60914933  0.93110864  0.25555373     1.03810
O653        O  0.61477873  0.06233682  0.30154824    -0.78780
C654        C  0.78499605  0.07968179  0.21197708     1.02110
C655        C  0.81031199  0.12398907  0.18645478     0.02290
C656        C  0.85473001  0.14636826  0.20806026    -0.13860
C657        C  0.87678997  0.19082671  0.18617068    -0.00210
C658        C  0.85446901  0.21236475  0.14168800    -0.12390
C659        C  0.81003834  0.19045461  0.11960542     0.02280
C660        C  0.78847777  0.14601005  0.14196110    -0.11810
H661        H  0.87137405  0.12992512  0.24278710     0.07880
H662        H  0.87093843  0.24707032  0.12499811     0.05400
H663        H  0.75379288  0.12929583  0.12545361     0.05250
C664        C  0.87643442  0.81840850  0.81420902     0.02290
C665        C  0.85438798  0.86285740  0.79231455    -0.13860
C666        C  0.80996595  0.88522732  0.81389800    -0.00210
C667        C  0.78810319  0.86321014  0.85837836    -0.12390
C668        C  0.80966755  0.81877326  0.88073549     0.02280
C669        C  0.85410507  0.79686788  0.85867266    -0.11810
H670        H  0.87105480  0.87930794  0.75759672     0.07880
H671        H  0.75340983  0.87991455  0.87486784     0.05400
H672        H  0.87058232  0.76216893  0.87536612     0.05250
loop_ 
_geom_bond_atom_site_label_1 
_geom_bond_atom_site_label_2 
_geom_bond_distance 
_geom_bond_site_symmetry_2 
_ccdc_geom_bond_type 
Fe1          O17   2.052       .  S
Fe1           O7   2.060       .  S
Fe1          O14   2.052       .  S
Fe1           O6   2.061       .  S
Fe1          O12   1.990       .  S
Fe2           O5   2.061       .  S
Fe2           O9   2.052       .  S
Fe2          O13   2.051       .  S
Fe2          O18   2.060       .  S
Fe2          O12   1.990       .  S
Fe3          O21   2.087       .  S
Fe3           O8   2.086       .  S
Fe3          O15   2.086       .  S
Fe3           O4   2.087       .  S
Fe3          O12   1.967       .  S
O4           C11   1.274       .  A
O5           C19   1.267       .  A
O6           C11   1.267       .  A
O7           C10   1.266       .  A
O8           C20   1.274       .  A
O9           C22   1.267       .  A
C10          O15   1.274       .  A
C10         C567   1.477       .  S
C11         C400   1.476       .  S
O13          C16   1.267       .  A
O14          C16   1.267       .  A
C16         C303   1.475       .  S
O17          C22   1.267       .  A
O18          C20   1.266       .  A
C19          O21   1.274       .  A
C19         C484   1.476       .  S
C20         C430   1.477       .  S
C22         C314   1.475       .  S
Fe23         O39   2.051       .  S
Fe23         O29   2.061       .  S
Fe23         O36   2.052       .  S
Fe23         O28   2.061       .  S
Fe23         O34   1.990       .  S
Fe24         O27   2.061       .  S
Fe24         O31   2.052       .  S
Fe24         O35   2.051       .  S
Fe24         O40   2.060       .  S
Fe24         O34   1.990       .  S
Fe25         O43   2.087       .  S
Fe25         O30   2.085       .  S
Fe25         O37   2.085       .  S
Fe25         O26   2.087       .  S
Fe25         O34   1.967       .  S
O26          C33   1.274       .  A
O27          C41   1.267       .  A
O28          C33   1.267       .  A
O29          C32   1.266       .  A
O30          C42   1.273       .  A
O31          C44   1.267       .  A
C32          O37   1.273       .  A
C32         C642   1.477       .  S
C33         C355   1.477       .  S
O35          C38   1.267       .  A
O36          C38   1.267       .  A
C38         C287   1.475       .  S
O39          C44   1.267       .  A
O40          C42   1.266       .  A
C41          O43   1.274       .  A
C41         C590   1.476       .  S
C42         C377   1.477       .  S
C44         C330   1.475       .  S
Fe45         O61   2.051       .  S
Fe45         O51   2.061       .  S
Fe45         O58   2.053       .  S
Fe45         O50   2.061       .  S
Fe45         O56   1.990       .  S
Fe46         O49   2.061       .  S
Fe46         O53   2.052       .  S
Fe46         O57   2.052       .  S
Fe46         O62   2.061       .  S
Fe46         O56   1.990       .  S
Fe47         O65   2.086       .  S
Fe47         O52   2.085       .  S
Fe47         O59   2.085       .  S
Fe47         O48   2.086       .  S
Fe47         O56   1.967       .  S
O48          C55   1.274       .  A
O49          C63   1.267       .  A
O50          C55   1.267       .  A
O51          C54   1.266       .  A
O52          C64   1.273       .  A
O53          C66   1.267       .  A
C54          O59   1.273       .  A
C54         C483   1.477       .  S
C55         C431   1.476       .  S
O57          C60   1.267       .  A
O58          C60   1.267       .  A
C60         C294   1.475       .  S
O61          C66   1.267       .  A
O62          C64   1.266       .  A
C63          O65   1.274       .  A
C63         C643   1.476       .  S
C64         C356   1.477       .  S
C66         C321   1.475       .  S
Fe67         O83   2.051       .  S
Fe67         O73   2.061       .  S
Fe67         O80   2.053       .  S
Fe67         O72   2.061       .  S
Fe67         O78   1.990       .  S
Fe68         O71   2.061       .  S
Fe68         O75   2.052       .  S
Fe68         O79   2.051       .  S
Fe68         O84   2.060       .  S
Fe68         O78   1.990       .  S
Fe69         O87   2.086       .  S
Fe69         O74   2.085       .  S
Fe69         O81   2.085       .  S
Fe69         O70   2.087       .  S
Fe69         O78   1.967       .  S
O70          C77   1.274       .  A
O71          C85   1.267       .  A
O72          C77   1.267       .  A
O73          C76   1.266       .  A
O74          C86   1.273       .  A
O75          C88   1.267       .  A
C76          O81   1.273       .  A
C76         C630   1.477       .  S
C77         C554   1.476       .  S
O79          C82   1.267       .  A
O80          C82   1.267       .  A
C82         C274   1.475       .  S
O83          C88   1.267       .  A
O84          C86   1.266       .  A
C85          O87   1.274       .  A
C85         C651   1.476       .  S
C86         C577   1.477       .  S
C88         C332   1.475       .  S
Fe89        O105   2.051       .  S
Fe89         O95   2.060       .  S
Fe89        O102   2.052       .  S
Fe89         O94   2.061       .  S
Fe89        O100   1.990       .  S
Fe90         O93   2.061       .  S
Fe90         O97   2.052       .  S
Fe90        O101   2.051       .  S
Fe90        O106   2.060       .  S
Fe90        O100   1.990       .  S
Fe91        O109   2.087       .  S
Fe91         O96   2.086       .  S
Fe91        O103   2.086       .  S
Fe91         O92   2.087       .  S
Fe91        O100   1.967       .  S
O92          C99   1.274       .  A
O93         C107   1.267       .  A
O94          C99   1.267       .  A
O95          C98   1.266       .  A
O96         C108   1.274       .  A
O97         C110   1.267       .  A
C98         O103   1.274       .  A
C98         C514   1.477       .  S
C99         C621   1.476       .  S
O101        C104   1.267       .  A
O102        C104   1.267       .  A
C104        C328   1.475       .  S
O105        C110   1.267       .  A
O106        C108   1.266       .  A
C107        O109   1.274       .  A
C107        C492   1.476       .  S
C108        C599   1.477       .  S
C110        C319   1.475       .  S
Fe111       O127   2.051       .  S
Fe111       O117   2.061       .  S
Fe111       O124   2.052       .  S
Fe111       O116   2.061       .  S
Fe111       O122   1.990       .  S
Fe112       O115   2.060       .  S
Fe112       O119   2.052       .  S
Fe112       O123   2.051       .  S
Fe112       O128   2.060       .  S
Fe112       O122   1.990       .  S
Fe113       O131   2.087       .  S
Fe113       O118   2.085       .  S
Fe113       O125   2.085       .  S
Fe113       O114   2.087       .  S
Fe113       O122   1.967       .  S
O114        C121   1.274       .  A
O115        C129   1.267       .  A
O116        C121   1.267       .  A
O117        C120   1.266       .  A
O118        C130   1.273       .  A
O119        C132   1.267       .  A
C120        O125   1.273       .  A
C120        C461   1.477       .  S
C121        C523   1.476       .  S
O123        C126   1.267       .  A
O124        C126   1.267       .  A
C126        C323   1.475       .  S
O127        C132   1.267       .  A
O128        C130   1.266       .  A
C129        O131   1.274       .  A
C129        C576   1.476       .  S
C130        C652   1.477       .  S
C132        C310   1.475       .  S
Fe133       O149   2.052       .  S
Fe133       O139   2.061       .  S
Fe133       O146   2.052       .  S
Fe133       O138   2.061       .  S
Fe133       O144   1.990       .  S
Fe134       O137   2.060       .  S
Fe134       O141   2.053       .  S
Fe134       O145   2.051       .  S
Fe134       O150   2.061       .  S
Fe134       O144   1.990       .  S
Fe135       O153   2.086       .  S
Fe135       O140   2.085       .  S
Fe135       O147   2.085       .  S
Fe135       O136   2.086       .  S
Fe135       O144   1.967       .  S
O136        C143   1.274       .  A
O137        C151   1.267       .  A
O138        C143   1.267       .  A
O139        C142   1.266       .  A
O140        C152   1.273       .  A
O141        C154   1.267       .  A
C142        O147   1.273       .  A
C142        C545   1.477       .  S
C143        C470   1.476       .  S
O145        C148   1.267       .  A
O146        C148   1.267       .  A
C148        C312   1.475       .  S
O149        C154   1.267       .  A
O150        C152   1.266       .  A
C151        O153   1.274       .  A
C151        C598   1.476       .  S
C152        C493   1.477       .  S
C154        C278   1.475       .  S
Fe155       O171   2.051       .  S
Fe155       O161   2.061       .  S
Fe155       O168   2.052       .  S
Fe155       O160   2.061       .  S
Fe155       O166   1.990       .  S
Fe156       O159   2.061       .  S
Fe156       O163   2.052       .  S
Fe156       O167   2.051       .  S
Fe156       O172   2.060       .  S
Fe156       O166   1.990       .  S
Fe157       O175   2.087       .  S
Fe157       O162   2.085       .  S
Fe157       O169   2.086       .  S
Fe157       O158   2.087       .  S
Fe157       O166   1.967       .  S
O158        C165   1.274       .  A
O159        C173   1.267       .  A
O160        C165   1.267       .  A
O161        C164   1.266       .  A
O162        C174   1.273       .  A
O163        C176   1.267       .  A
C164        O169   1.273       .  A
C164        C471   1.477       .  S
C165        C546   1.476       .  S
O167        C170   1.267       .  A
O168        C170   1.267       .  A
C170        C267   1.475       .  S
O171        C176   1.267       .  A
O172        C174   1.266       .  A
C173        O175   1.274       .  A
C173        C439   1.476       .  S
C174        C387   1.477       .  S
C176        C301   1.475       .  S
Fe177       O193   2.051       .  S
Fe177       O183   2.061       .  S
Fe177       O190   2.052       .  S
Fe177       O182   2.061       .  S
Fe177       O188   1.990       .  S
Fe178       O181   2.061       .  S
Fe178       O185   2.052       .  S
Fe178       O189   2.052       .  S
Fe178       O194   2.061       .  S
Fe178       O188   1.990       .  S
Fe179       O197   2.086       .  S
Fe179       O184   2.085       .  S
Fe179       O191   2.085       .  S
Fe179       O180   2.087       .  S
Fe179       O188   1.967       .  S
O180        C187   1.274       .  A
O181        C195   1.267       .  A
O182        C187   1.267       .  A
O183        C186   1.266       .  A
O184        C196   1.273       .  A
O185        C198   1.267       .  A
C186        O191   1.273       .  A
C186        C409   1.477       .  S
C187        C347   1.476       .  S
O189        C192   1.267       .  A
O190        C192   1.267       .  A
C192        C296   1.475       .  S
O193        C198   1.267       .  A
O194        C196   1.266       .  A
C195        O197   1.274       .  A
C195        C462   1.476       .  S
C196        C524   1.477       .  S
C198        C305   1.475       .  S
Fe199       O215   2.051       .  S
Fe199       O205   2.061       .  S
Fe199       O212   2.053       .  S
Fe199       O204   2.061       .  S
Fe199       O210   1.990       .  S
Fe200       O203   2.061       .  S
Fe200       O207   2.052       .  S
Fe200       O211   2.051       .  S
Fe200       O216   2.061       .  S
Fe200       O210   1.990       .  S
Fe201       O219   2.086       .  S
Fe201       O206   2.085       .  S
Fe201       O213   2.085       .  S
Fe201       O202   2.087       .  S
Fe201       O210   1.967       .  S
O202        C209   1.274       .  A
O203        C217   1.267       .  A
O204        C209   1.267       .  A
O205        C208   1.266       .  A
O206        C218   1.273       .  A
O207        C220   1.267       .  A
C208        O213   1.273       .  A
C208        C620   1.477       .  S
C209        C515   1.476       .  S
O211        C214   1.267       .  A
O212        C214   1.267       .  A
C214        C292   1.475       .  S
O215        C220   1.267       .  A
O216        C218   1.266       .  A
C217        O219   1.274       .  A
C217        C386   1.476       .  S
C218        C440   1.477       .  S
C220        C285   1.475       .  S
Fe221       O237   2.051       .  S
Fe221       O227   2.060       .  S
Fe221       O234   2.052       .  S
Fe221       O226   2.060       .  S
Fe221       O232   1.990       .  S
Fe222       O225   2.061       .  S
Fe222       O229   2.052       .  S
Fe222       O233   2.051       .  S
Fe222       O238   2.060       .  S
Fe222       O232   1.990       .  S
Fe223       O241   2.087       .  S
Fe223       O228   2.086       .  S
Fe223       O235   2.086       .  S
Fe223       O224   2.087       .  S
Fe223       O232   1.967       .  S
O224        C231   1.274       .  A
O225        C239   1.267       .  A
O226        C231   1.267       .  A
O227        C230   1.266       .  A
O228        C240   1.274       .  A
O229        C242   1.267       .  A
C230        O235   1.274       .  A
C230        C346   1.477       .  S
C231        C408   1.476       .  S
O233        C236   1.267       .  A
O234        C236   1.267       .  A
C236        C265   1.475       .  S
O237        C242   1.267       .  A
O238        C240   1.266       .  A
C239        O241   1.274       .  A
C239        C629   1.476       .  S
C240        C555   1.477       .  S
C242        C283   1.475       .  S
Fe243       O259   2.051       .  S
Fe243       O249   2.061       .  S
Fe243       O256   2.053       .  S
Fe243       O248   2.061       .  S
Fe243       O254   1.990       .  S
Fe244       O247   2.061       .  S
Fe244       O251   2.052       .  S
Fe244       O255   2.052       .  S
Fe244       O260   2.061       .  S
Fe244       O254   1.990       .  S
Fe245       O263   2.086       .  S
Fe245       O250   2.085       .  S
Fe245       O257   2.085       .  S
Fe245       O246   2.087       .  S
Fe245       O254   1.967       .  S
O246        C253   1.274       .  A
O247        C261   1.267       .  A
O248        C253   1.267       .  A
O249        C252   1.266       .  A
O250        C262   1.273       .  A
O251        C264   1.267       .  A
C252        O257   1.273       .  A
C252        C399   1.477       .  S
C253        C568   1.476       .  S
O255        C258   1.267       .  A
O256        C258   1.267       .  A
C258        C276   1.475       .  S
O259        C264   1.267       .  A
O260        C262   1.266       .  A
C261        O263   1.274       .  A
C261        C378   1.476       .  S
C262        C589   1.477       .  S
C264        C269   1.475       .  S
C265        C266   1.402       .  A
C265        C270   1.402       .  A
C266        C267   1.402       .  A
C266        H271   1.083       .  S
C267        C268   1.402       .  A
C268        C269   1.402       .  A
C268        H272   1.083       .  S
C269        C270   1.402       .  A
C270        H273   1.083       .  S
C274        C275   1.402       .  A
C274        C279   1.402       .  A
C275        C276   1.402       .  A
C275        H280   1.083       .  S
C276        C277   1.402       .  A
C277        C278   1.402       .  A
C277        H281   1.083       .  S
C278        C279   1.402       .  A
C279        H282   1.083       .  S
C283        C284   1.402       .  A
C283        C288   1.402       .  A
C284        C285   1.402       .  A
C284        H289   1.083       .  S
C285        C286   1.402       .  A
C286        C287   1.402       .  A
C286        H290   1.083       .  S
C287        C288   1.402       .  A
C288        H291   1.083       .  S
C292        C293   1.402       .  A
C292        C297   1.402       .  A
C293        C294   1.402       .  A
C293        H298   1.083       .  S
C294        C295   1.402       .  A
C295        C296   1.402       .  A
C295        H299   1.083       .  S
C296        C297   1.402       .  A
C297        H300   1.083       .  S
C301        C302   1.402       .  A
C301        C306   1.402       .  A
C302        C303   1.402       .  A
C302        H307   1.083       .  S
C303        C304   1.402       .  A
C304        C305   1.402       .  A
C304        H308   1.083       .  S
C305        C306   1.402       .  A
C306        H309   1.083       .  S
C310        C311   1.402       .  A
C310        C315   1.402       .  A
C311        C312   1.402       .  A
C311        H316   1.083       .  S
C312        C313   1.402       .  A
C313        C314   1.402       .  A
C313        H317   1.083       .  S
C314        C315   1.402       .  A
C315        H318   1.083       .  S
C319        C320   1.402       .  A
C319        C324   1.402       .  A
C320        C321   1.402       .  A
C320        H325   1.083       .  S
C321        C322   1.402       .  A
C322        C323   1.402       .  A
C322        H326   1.083       .  S
C323        C324   1.402       .  A
C324        H327   1.083       .  S
C328        C329   1.402       .  A
C328        C333   1.402       .  A
C329        C330   1.402       .  A
C329        H334   1.083       .  S
C330        C331   1.402       .  A
C331        C332   1.402       .  A
C331        H335   1.083       .  S
C332        C333   1.402       .  A
C333        H336   1.083       .  S
Fe337       O353   2.051       .  S
Fe337       O343   2.060       .  S
Fe337       O350   2.052   1_545  S
Fe337       O342   2.061   1_545  S
Fe337       O348   1.990       .  S
Fe338       O341   2.061       .  S
Fe338       O345   2.052       .  S
Fe338       O349   2.051   1_545  S
Fe338       O354   2.061   1_545  S
Fe338       O348   1.990       .  S
Fe339       O357   2.087       .  S
Fe339       O344   2.086   1_545  S
Fe339       O351   2.085       .  S
Fe339       O340   2.087   1_545  S
Fe339       O348   1.967       .  S
O340        C347   1.274       .  A
O341        C355   1.267       .  A
O342        C347   1.267       .  A
O343        C346   1.266       .  A
O344        C356   1.273       .  A
O345        C358   1.267       .  A
C346        O351   1.274       .  A
O349        C352   1.267       .  A
O350        C352   1.267       .  A
C352        C666   1.475       .  S
O353        C358   1.267       .  A
O354        C356   1.266       .  A
C355        O357   1.274       .  A
C358        C359   1.475       .  S
C359        C360   1.402       .  A
C359        C364   1.402       .  A
C360        C361   1.402       .  A
C360        H365   1.083       .  S
C361        C389   1.475       .  S
C361        C362   1.402       .  A
C362        C363   1.402       .  A
C362        H366   1.083       .  S
C363        C632   1.475       .  S
C363        C364   1.402       .  A
C364        H367   1.083       .  S
Fe368       O384   2.052       .  S
Fe368       O374   2.061       .  S
Fe368       O381   2.052   1_655  S
Fe368       O373   2.061   1_655  S
Fe368       O379   1.990       .  S
Fe369       O372   2.061       .  S
Fe369       O376   2.052       .  S
Fe369       O380   2.051   1_655  S
Fe369       O385   2.060   1_655  S
Fe369       O379   1.990       .  S
Fe370       O388   2.086       .  S
Fe370       O375   2.085   1_655  S
Fe370       O382   2.085       .  S
Fe370       O371   2.086   1_655  S
Fe370       O379   1.967       .  S
O371        C378   1.274       .  A
O372        C386   1.267       .  A
O373        C378   1.267       .  A
O374        C377   1.266       .  A
O375        C387   1.273       .  A
O376        C389   1.267       .  A
C377        O382   1.273       .  A
O380        C383   1.267       .  A
O381        C383   1.267       .  A
C383        C412   1.475       .  S
O384        C389   1.267       .  A
O385        C387   1.266       .  A
C386        O388   1.274       .  A
Fe390       O406   2.051       .  S
Fe390       O396   2.061       .  S
Fe390       O403   2.053   1_545  S
Fe390       O395   2.061   1_545  S
Fe390       O401   1.990       .  S
Fe391       O394   2.061       .  S
Fe391       O398   2.052       .  S
Fe391       O402   2.051   1_545  S
Fe391       O407   2.061   1_545  S
Fe391       O401   1.990       .  S
Fe392       O410   2.086       .  S
Fe392       O397   2.085   1_545  S
Fe392       O404   2.085       .  S
Fe392       O393   2.087   1_545  S
Fe392       O401   1.967       .  S
O393        C400   1.274       .  A
O394        C408   1.267       .  A
O395        C400   1.267       .  A
O396        C399   1.266       .  A
O397        C409   1.273       .  A
O398        C411   1.267       .  A
C399        O404   1.273       .  A
O402        C405   1.267       .  A
O403        C405   1.267       .  A
C405        C445   1.475       .  S
O406        C411   1.267       .  A
O407        C409   1.266       .  A
C408        O410   1.274       .  A
C411        C414   1.475       .  S
C412        C413   1.402       .  A
C412        C417   1.402       .  A
C413        C414   1.402       .  A
C413        H418   1.083       .  S
C414        C415   1.402       .  A
C415        C416   1.402       .  A
C415        H419   1.083       .  S
C416        C551   1.475       .  S
C416        C417   1.402       .  A
C417        H420   1.083       .  S
Fe421       O437   2.051   1_655  S
Fe421       O427   2.060   1_655  S
Fe421       O434   2.052       .  S
Fe421       O426   2.061       .  S
Fe421       O432   1.990       .  S
Fe422       O425   2.060   1_655  S
Fe422       O429   2.052   1_655  S
Fe422       O433   2.051       .  S
Fe422       O438   2.060       .  S
Fe422       O432   1.990       .  S
Fe423       O441   2.087   1_655  S
Fe423       O428   2.086       .  S
Fe423       O435   2.086   1_655  S
Fe423       O424   2.087       .  S
Fe423       O432   1.967       .  S
O424        C431   1.274       .  A
O425        C439   1.267       .  A
O426        C431   1.267       .  A
O427        C430   1.266       .  A
O428        C440   1.273       .  A
O429        C442   1.267       .  A
C430        O435   1.274       .  A
O433        C436   1.267       .  A
O434        C436   1.267       .  A
C436        C664   1.475       .  S
O437        C442   1.267       .  A
O438        C440   1.266       .  A
C439        O441   1.274       .  A
C442        C443   1.475       .  S
C443        C444   1.402       .  A
C443        C448   1.402       .  A
C444        C445   1.402       .  A
C444        H449   1.083       .  S
C445        C446   1.402       .  A
C446        C447   1.402       .  A
C446        H450   1.083       .  S
C447        C467   1.475       .  S
C447        C448   1.402       .  A
C448        H451   1.083       .  S
Fe452       O468   2.052       .  S
Fe452       O458   2.061       .  S
Fe452       O465   2.052   1_554  S
Fe452       O457   2.061   1_554  S
Fe452       O463   1.990       .  S
Fe453       O456   2.061       .  S
Fe453       O460   2.053       .  S
Fe453       O464   2.052   1_554  S
Fe453       O469   2.061   1_554  S
Fe453       O463   1.990       .  S
Fe454       O472   2.086       .  S
Fe454       O459   2.085   1_554  S
Fe454       O466   2.085       .  S
Fe454       O455   2.086   1_554  S
Fe454       O463   1.967       .  S
O455        C462   1.274       .  A
O456        C470   1.267       .  A
O457        C462   1.267       .  A
O458        C461   1.266       .  A
O459        C471   1.273       .  A
O460        C473   1.267       .  A
C461        O466   1.273       .  A
O464        C467   1.267       .  A
O465        C467   1.267       .  A
O468        C473   1.267       .  A
O469        C471   1.266       .  A
C470        O472   1.274       .  A
C473        C498   1.475       .  S
Fe474       O490   2.051       .  S
Fe474       O480   2.061       .  S
Fe474       O487   2.053   1_655  S
Fe474       O479   2.061   1_655  S
Fe474       O485   1.990       .  S
Fe475       O478   2.061       .  S
Fe475       O482   2.052       .  S
Fe475       O486   2.051   1_655  S
Fe475       O491   2.061   1_655  S
Fe475       O485   1.990       .  S
Fe476       O494   2.086       .  S
Fe476       O481   2.085   1_655  S
Fe476       O488   2.085       .  S
Fe476       O477   2.087   1_655  S
Fe476       O485   1.967       .  S
O477        C484   1.274       .  A
O478        C492   1.267       .  A
O479        C484   1.267       .  A
O480        C483   1.266       .  A
O481        C493   1.273       .  A
O482        C495   1.267       .  A
C483        O488   1.273       .  A
O486        C489   1.267       .  A
O487        C489   1.267       .  A
C489        C500   1.475       .  S
O490        C495   1.267       .  A
O491        C493   1.266       .  A
C492        O494   1.274       .  A
C495        C529   1.475       .  S
C496        C579   1.475       .  S
C496        C497   1.402       .  A
C496        C501   1.402       .  A
C497        C498   1.402       .  A
C497        H502   1.083       .  S
C498        C499   1.402       .  A
C499        C500   1.402       .  A
C499        H503   1.083       .  S
C500        C501   1.402       .  A
C501        H504   1.083       .  S
Fe505       O521   2.052   1_556  S
Fe505       O511   2.060   1_556  S
Fe505       O518   2.052       .  S
Fe505       O510   2.061       .  S
Fe505       O516   1.990   1_556  S
Fe506       O509   2.061       .  S
Fe506       O513   2.052       .  S
Fe506       O517   2.051   1_554  S
Fe506       O522   2.060   1_554  S
Fe506       O516   1.990       .  S
Fe507       O525   2.087       .  S
Fe507       O512   2.086   1_554  S
Fe507       O519   2.086       .  S
Fe507       O508   2.087   1_554  S
Fe507       O516   1.967       .  S
O508        C515   1.274       .  A
O509        C523   1.267       .  A
O510        C515   1.267       .  A
O511        C514   1.266       .  A
O512        C524   1.273       .  A
O513        C526   1.267       .  A
C514        O519   1.274       .  A
O517        C520   1.267       .  A
O518        C520   1.267       .  A
C520        C668   1.475       .  S
O521        C526   1.267       .  A
O522        C524   1.266       .  A
C523        O525   1.274       .  A
C526        C531   1.475       .  S
C527        C648   1.475       .  S
C527        C528   1.402       .  A
C527        C532   1.402       .  A
C528        C529   1.402       .  A
C528        H533   1.083       .  S
C529        C530   1.402       .  A
C530        C531   1.402       .  A
C530        H534   1.083       .  S
C531        C532   1.402       .  A
C532        H535   1.083       .  S
Fe536       O552   2.051       .  S
Fe536       O542   2.061       .  S
Fe536       O549   2.052   1_554  S
Fe536       O541   2.061   1_554  S
Fe536       O547   1.990       .  S
Fe537       O540   2.061       .  S
Fe537       O544   2.052       .  S
Fe537       O548   2.052   1_554  S
Fe537       O553   2.060   1_554  S
Fe537       O547   1.990       .  S
Fe538       O556   2.087       .  S
Fe538       O543   2.086   1_554  S
Fe538       O550   2.085       .  S
Fe538       O539   2.087   1_554  S
Fe538       O547   1.967       .  S
O539        C546   1.274       .  A
O540        C554   1.267       .  A
O541        C546   1.267       .  A
O542        C545   1.266       .  A
O543        C555   1.274       .  A
O544        C557   1.267       .  A
C545        O550   1.273       .  A
O548        C551   1.267       .  A
O549        C551   1.267       .  A
O552        C557   1.267       .  A
O553        C555   1.266       .  A
C554        O556   1.274       .  A
C557        C604   1.475       .  S
Fe558       O574   2.051   1_545  S
Fe558       O564   2.060   1_545  S
Fe558       O571   2.052       .  S
Fe558       O563   2.061       .  S
Fe558       O569   1.990       .  S
Fe559       O562   2.060   1_545  S
Fe559       O566   2.052   1_545  S
Fe559       O570   2.051       .  S
Fe559       O575   2.060       .  S
Fe559       O569   1.990       .  S
Fe560       O578   2.087   1_545  S
Fe560       O565   2.086       .  S
Fe560       O572   2.086   1_545  S
Fe560       O561   2.087       .  S
Fe560       O569   1.967       .  S
O561        C568   1.274       .  A
O562        C576   1.267       .  A
O563        C568   1.267       .  A
O564        C567   1.266       .  A
O565        C577   1.273       .  A
O566        C579   1.267       .  A
C567        O572   1.274       .  A
O570        C573   1.267       .  A
O571        C573   1.267       .  A
C573        C606   1.475       .  S
O574        C579   1.267       .  A
O575        C577   1.266       .  A
C576        O578   1.274       .  A
Fe580       O596   2.051   1_655  S
Fe580       O586   2.061   1_655  S
Fe580       O593   2.053       .  S
Fe580       O585   2.061       .  S
Fe580       O591   1.990       .  S
Fe581       O584   2.060   1_655  S
Fe581       O588   2.052   1_655  S
Fe581       O592   2.051       .  S
Fe581       O597   2.060       .  S
Fe581       O591   1.990       .  S
Fe582       O600   2.087   1_655  S
Fe582       O587   2.086       .  S
Fe582       O594   2.086   1_655  S
Fe582       O583   2.087       .  S
Fe582       O591   1.967       .  S
O583        C590   1.274       .  A
O584        C598   1.267       .  A
O585        C590   1.267       .  A
O586        C589   1.266       .  A
O587        C599   1.274       .  A
O588        C601   1.267       .  A
C589        O594   1.273       .  A
O592        C595   1.267       .  A
O593        C595   1.267       .  A
C595        C657   1.475       .  S
O596        C601   1.267       .  A
O597        C599   1.266       .  A
C598        O600   1.274       .  A
C601        C602   1.475       .  S
C602        C603   1.402       .  A
C602        C607   1.402       .  A
C603        C604   1.402       .  A
C603        H608   1.083       .  S
C604        C605   1.402       .  A
C605        C606   1.402       .  A
C605        H609   1.083       .  S
C606        C607   1.402       .  A
C607        H610   1.083       .  S
Fe611       O627   2.051   1_554  S
Fe611       O617   2.061   1_554  S
Fe611       O624   2.053       .  S
Fe611       O616   2.061       .  S
Fe611       O622   1.990       .  S
Fe612       O615   2.061   1_554  S
Fe612       O619   2.053   1_554  S
Fe612       O623   2.051       .  S
Fe612       O628   2.061       .  S
Fe612       O622   1.990       .  S
Fe613       O631   2.086   1_554  S
Fe613       O618   2.085       .  S
Fe613       O625   2.085   1_554  S
Fe613       O614   2.086       .  S
Fe613       O622   1.967       .  S
O614        C621   1.274       .  A
O615        C629   1.267       .  A
O616        C621   1.267       .  A
O617        C620   1.266       .  A
O618        C630   1.273       .  A
O619        C632   1.267       .  A
C620        O625   1.273       .  A
O623        C626   1.267       .  A
O624        C626   1.267       .  A
C626        C659   1.475       .  S
O627        C632   1.267       .  A
O628        C630   1.266       .  A
C629        O631   1.274       .  A
Fe633       O649   2.051       .  S
Fe633       O639   2.061       .  S
Fe633       O646   2.052   1_545  S
Fe633       O638   2.061   1_545  S
Fe633       O644   1.990       .  S
Fe634       O637   2.061       .  S
Fe634       O641   2.052       .  S
Fe634       O645   2.051   1_545  S
Fe634       O650   2.061   1_545  S
Fe634       O644   1.990       .  S
Fe635       O653   2.086       .  S
Fe635       O640   2.085   1_545  S
Fe635       O647   2.085       .  S
Fe635       O636   2.086   1_545  S
Fe635       O644   1.967       .  S
O636        C643   1.274       .  A
O637        C651   1.267       .  A
O638        C643   1.267       .  A
O639        C642   1.266       .  A
O640        C652   1.273       .  A
O641        C654   1.267       .  A
C642        O647   1.273       .  A
O645        C648   1.267       .  A
O646        C648   1.267       .  A
O649        C654   1.267       .  A
O650        C652   1.266       .  A
C651        O653   1.274       .  A
C654        C655   1.475       .  S
C655        C656   1.402       .  A
C655        C660   1.402       .  A
C656        C657   1.402       .  A
C656        H661   1.083       .  S
C657        C658   1.402       .  A
C658        C659   1.402       .  A
C658        H662   1.083       .  S
C659        C660   1.402       .  A
C660        H663   1.083       .  S
C664        C665   1.402       .  A
C664        C669   1.402       .  A
C665        C666   1.402       .  A
C665        H670   1.083       .  S
C666        C667   1.402       .  A
C667        C668   1.402       .  A
C667        H671   1.083       .  S
C668        C669   1.402       .  A
C669        H672   1.083       .  S
