geometry optimzed in LAMMPS
_audit_creation_date              2020-11-30 
_audit_creation_method            'lammps2cif' 
_symmetry_space_group_name_H-M    'P1' 
_symmetry_Int_Tables_number       1 
_symmetry_cell_setting            triclinic 
loop_ 
_symmetry_equiv_pos_as_xyz 
  x,y,z 
_cell_length_a                    50.03832847823149 
_cell_length_b                    45.44280897640441 
_cell_length_c                    43.760084102950195 
_cell_angle_alpha                 89.94240349950684 
_cell_angle_beta                  90.02038433997512 
_cell_angle_gamma                 90.12701592666937 
loop_ 
_atom_site_label 
_atom_site_type_symbol 
_atom_site_fract_x 
_atom_site_fract_y 
_atom_site_fract_z 
_atom_site_charge 
N1          N  0.35647399  0.93287581  0.53948853    -0.27410
N2          N  0.37934071  0.94745329  0.53892817    -0.35260
C3          C  0.38302492  0.95892528  0.51102747     0.00930
C4          C  0.36140970  0.95154231  0.49301866     0.06960
C5          C  0.34486545  0.93493372  0.51171633    -0.06140
H6          H  0.40132693  0.96940534  0.50352835     0.07630
H7          H  0.32728577  0.92274795  0.50478381     0.08830
Cu8        Cu  0.40830116  0.94472793  0.57228848     0.44170
Cu9        Cu  0.34641456  0.90557644  0.57593149     0.41990
Cu10       Cu  0.40412233  0.88699863  0.62628334     0.43880
N11         N  0.44036936  0.93184047  0.59860746    -0.34790
N12         N  0.43947477  0.90972085  0.61815726    -0.29050
C13         C  0.46444220  0.90424538  0.62828553    -0.05150
C14         C  0.48172666  0.92392488  0.61418567     0.07070
C15         C  0.46570177  0.94107685  0.59565944     0.00870
H16         H  0.46975427  0.88637607  0.64345322     0.08520
H17         H  0.47211930  0.95789075  0.57974474     0.07600
N18         N  0.36630351  0.86814451  0.62882078    -0.36240
N19         N  0.34547516  0.87529112  0.61165831    -0.28420
C20         C  0.32469321  0.85789999  0.61926731    -0.03660
C21         C  0.33297959  0.83864518  0.64183145     0.04950
C22         C  0.35936015  0.84588011  0.64743384     0.03040
H23         H  0.30538145  0.85828276  0.60814781     0.08150
H24         H  0.37272972  0.83539376  0.66351896     0.06980
N25         N  0.63665281  0.93133645  0.54131286    -0.27410
N26         N  0.61436091  0.94685817  0.54074984    -0.35260
C27         C  0.61121151  0.95862823  0.51289540     0.00930
C28         C  0.63258316  0.95045970  0.49491564     0.06960
C29         C  0.64841185  0.93306942  0.51360119    -0.06140
H30         H  0.59332715  0.96985506  0.50536651     0.07630
H31         H  0.66552549  0.92019050  0.50667548     0.08830
Cu32       Cu  0.58517581  0.94514854  0.57398975     0.44170
Cu33       Cu  0.64575500  0.90361869  0.57774849     0.41990
Cu34       Cu  0.58891273  0.88994488  0.63083284     0.43880
N35         N  0.55275741  0.93287560  0.60020998    -0.34790
N36         N  0.55353541  0.91160247  0.62075062    -0.29050
C37         C  0.52842438  0.90576241  0.63020934    -0.05150
C38         C  0.51115848  0.92436681  0.61471445     0.07070
C39         C  0.52734268  0.94127225  0.59604053     0.00870
H40         H  0.52305240  0.88830083  0.64588164     0.08520
H41         H  0.52101537  0.95715732  0.57911092     0.07600
N42         N  0.62611928  0.86998729  0.63351656    -0.36240
N43         N  0.64641647  0.87470017  0.61471526    -0.28420
C44         C  0.66651034  0.85644857  0.62227844    -0.03660
C45         C  0.65840358  0.83919977  0.64671786     0.04950
C46         C  0.63281403  0.84872521  0.65342086     0.03040
H47         H  0.68525361  0.85501881  0.61005825     0.08150
H48         H  0.61972563  0.84061004  0.67120311     0.06980
N49         N  0.63745824  0.97101226  0.41511501    -0.27410
N50         N  0.61461527  0.95638431  0.41556291    -0.35260
C51         C  0.61102888  0.94457700  0.44333415     0.00930
C52         C  0.63266727  0.95180158  0.46139703     0.06960
C53         C  0.64912831  0.96866469  0.44283334    -0.06140
H54         H  0.59271674  0.93408971  0.45079040     0.07630
H55         H  0.66665157  0.98088676  0.44988286     0.08830
Cu56       Cu  0.58544923  0.95967158  0.38243605     0.44170
Cu57       Cu  0.64742472  0.99871294  0.37892991     0.41990
Cu58       Cu  0.58979999  0.01769946  0.32874278     0.43880
N59         N  0.55331533  0.97315352  0.35646776    -0.34790
N60         N  0.55429910  0.99540584  0.33708511    -0.29050
C61         C  0.52935287  0.00114716  0.32705127    -0.05150
C62         C  0.51197484  0.98149635  0.34102488     0.07070
C63         C  0.52792769  0.96409035  0.35939318     0.00870
H64         H  0.52414025  0.01910240  0.31194792     0.08520
H65         H  0.52144015  0.94714800  0.37512267     0.07600
N66         N  0.62796073  0.03545719  0.32529548    -0.36240
N67         N  0.64865572  0.02842629  0.34265959    -0.28420
C68         C  0.66970911  0.04507599  0.33436011    -0.03660
C69         C  0.66198906  0.06349747  0.31064873     0.04950
C70         C  0.63531083  0.05676963  0.30572453     0.03040
H71         H  0.68906139  0.04426079  0.34534579     0.08150
H72         H  0.62169941  0.06743779  0.29007491     0.06980
N73         N  0.35729638  0.97274312  0.41344945    -0.27410
N74         N  0.37948977  0.95706312  0.41370149    -0.35260
C75         C  0.38263784  0.94489954  0.44137593     0.00930
C76         C  0.36133356  0.95296821  0.45952471     0.06960
C77         C  0.34557419  0.97071029  0.44114259    -0.06140
H78         H  0.40051466  0.93354838  0.44872428     0.07630
H79         H  0.32859348  0.98367509  0.44831860     0.08830
Cu80       Cu  0.40852759  0.95931718  0.38035306     0.44170
Cu81       Cu  0.34837935  0.00104081  0.37753156     0.41990
Cu82       Cu  0.40458761  0.01508459  0.32368704     0.43880
N83         N  0.44089924  0.97226277  0.35444488    -0.34790
N84         N  0.44012834  0.99375240  0.33413648    -0.29050
C85         C  0.46528584  0.99981315  0.32494989    -0.05150
C86         C  0.48254082  0.98111800  0.34037066     0.07070
C87         C  0.46631760  0.96395070  0.35871363     0.00870
H88         H  0.47068087  0.01739956  0.30943911     0.08520
H89         H  0.47260048  0.94786788  0.37546225     0.07600
N90         N  0.36680514  0.03382602  0.32064334    -0.36240
N91         N  0.34697497  0.02937890  0.34019563    -0.28420
C92         C  0.32648303  0.04711712  0.33273572    -0.03660
C93         C  0.33361341  0.06303107  0.30710655     0.04950
C94         C  0.35924681  0.05418992  0.30008944     0.03040
H95         H  0.30807209  0.04890463  0.34554860     0.08150
H96         H  0.37196675  0.06296287  0.28227224     0.06980
N97         N  0.35856512  0.43266592  0.41166475    -0.27410
N98         N  0.38154816  0.44698374  0.41266649    -0.35260
C99         C  0.38486479  0.45852827  0.44057598     0.00930
C100        C  0.36285722  0.45148554  0.45810148     0.06960
C101        C  0.34648188  0.43498539  0.43913131    -0.06140
H102        H  0.40310188  0.46890685  0.44841719     0.07630
H103        H  0.32862155  0.42310527  0.44569794     0.08830
Cu104      Cu  0.41085649  0.44390984  0.37978329     0.44170
Cu105      Cu  0.34892547  0.40552876  0.37502505     0.41990
Cu106      Cu  0.40688567  0.38697016  0.32485530     0.43880
N107        N  0.44318717  0.43072002  0.35412604    -0.34790
N108        N  0.44243799  0.40881911  0.33434913    -0.29050
C109        C  0.46757377  0.40298051  0.32500137    -0.05150
C110        C  0.48478559  0.42223292  0.33982283     0.07070
C111        C  0.46855179  0.43948737  0.35794915     0.00870
H112        H  0.47299983  0.38518885  0.30983014     0.08520
H113        H  0.47479953  0.45603397  0.37421781     0.07600
N114        N  0.36880252  0.36886200  0.32154213    -0.36240
N115        N  0.34802841  0.37580732  0.33887595    -0.28420
C116        C  0.32722382  0.35849235  0.33121330    -0.03660
C117        C  0.33540269  0.33970881  0.30829731     0.04950
C118        C  0.36174889  0.34687984  0.30264400     0.03040
H119        H  0.30804331  0.35850578  0.34261601     0.08150
H120        H  0.37513141  0.33611642  0.28680506     0.06980
N121        N  0.63792261  0.43216368  0.41745628    -0.27410
N122        N  0.61529510  0.44706787  0.41719437    -0.35260
C123        C  0.61128789  0.45897769  0.44480992     0.00930
C124        C  0.63247255  0.45155387  0.46346045     0.06960
C125        C  0.64907978  0.43446664  0.44543846    -0.06140
H126        H  0.59299851  0.46975776  0.45170908     0.07630
H127        H  0.66630192  0.42208207  0.45300117     0.08830
Cu128      Cu  0.58704831  0.44412787  0.38302358     0.44170
Cu129      Cu  0.64808329  0.40419530  0.38178940     0.41990
Cu130      Cu  0.59250671  0.38776262  0.32741737     0.43880
N131        N  0.55545229  0.43104156  0.35598799    -0.34790
N132        N  0.55673427  0.40937230  0.33597295    -0.29050
C133        C  0.53184029  0.40341293  0.32578911    -0.05150
C134        C  0.51422771  0.42236198  0.34027709     0.07070
C135        C  0.52997827  0.43956073  0.35909676     0.00870
H136        H  0.52682245  0.38572000  0.31027704     0.08520
H137        H  0.52329276  0.45584754  0.37538120     0.07600
N138        N  0.63029728  0.36884024  0.32634770    -0.36240
N139        N  0.65000374  0.37449496  0.34573388    -0.28420
C140        C  0.67065085  0.35656586  0.33949066    -0.03660
C141        C  0.66350551  0.33867489  0.31528080     0.04950
C142        C  0.63801776  0.34732817  0.30725136     0.03040
H143        H  0.68918745  0.35600795  0.35221487     0.08150
H144        H  0.62554984  0.33782948  0.28960974     0.06980
N145        N  0.35721392  0.47368751  0.53718786    -0.27410
N146        N  0.37918764  0.45765144  0.53787880    -0.35260
C147        C  0.38282866  0.44512187  0.51048481     0.00930
C148        C  0.36206206  0.45331075  0.49155484     0.06960
C149        C  0.34612175  0.47151842  0.50916810    -0.06140
H150        H  0.40070535  0.43337953  0.50387651     0.07630
H151        H  0.32949083  0.48466549  0.50127054     0.08830
Cu152      Cu  0.40732507  0.45974660  0.57226818     0.44170
Cu153      Cu  0.34784072  0.50255387  0.57236738     0.41990
Cu154      Cu  0.40221291  0.51560695  0.62882052     0.43880
N155        N  0.43897277  0.47232751  0.59952461    -0.34790
N156        N  0.43777361  0.49376717  0.61982099    -0.29050
C157        C  0.46270306  0.49965760  0.62989283    -0.05150
C158        C  0.48026596  0.48091367  0.61506875     0.07070
C159        C  0.46445243  0.46387843  0.59615576     0.00870
H160        H  0.46777925  0.51724306  0.64551154     0.08520
H161        H  0.47110545  0.44786471  0.57956293     0.07600
N162        N  0.36487575  0.53555878  0.62963165    -0.36240
N163        N  0.34578114  0.53150002  0.60907017    -0.28420
C164        C  0.32539121  0.54977420  0.61527811    -0.03660
C165        C  0.33189335  0.56597101  0.64097060     0.04950
C166        C  0.35690852  0.55620517  0.64962605     0.03040
H167        H  0.30728595  0.55133676  0.60185981     0.08150
H168        H  0.36891845  0.56436977  0.66836689     0.06980
N169        N  0.63603289  0.47212605  0.54332694    -0.27410
N170        N  0.61325189  0.45740493  0.54244077    -0.35260
C171        C  0.61003980  0.44574053  0.51457148     0.00930
C172        C  0.63188750  0.45314409  0.49693722     0.06960
C173        C  0.64807830  0.46994823  0.51582515    -0.06140
H174        H  0.59190189  0.43510706  0.50679620     0.07630
H175        H  0.66570550  0.48218875  0.50914741     0.08830
Cu176      Cu  0.58380824  0.46019527  0.57522222     0.44170
Cu177      Cu  0.64539850  0.49965875  0.57975185     0.41990
Cu178      Cu  0.58714435  0.51795593  0.62924393     0.43880
N179        N  0.55131543  0.47324997  0.60072824    -0.34790
N180        N  0.55189517  0.49542065  0.62018578    -0.29050
C181        C  0.52676260  0.50099131  0.62967023    -0.05150
C182        C  0.50970075  0.48131297  0.61525707     0.07070
C183        C  0.52602485  0.46406593  0.59721659     0.00870
H184        H  0.52121813  0.51889738  0.64463859     0.08520
H185        H  0.51986613  0.44721573  0.58124089     0.07600
N186        N  0.62516550  0.53600177  0.63322207    -0.36240
N187        N  0.64604465  0.52920483  0.61607605    -0.28420
C188        C  0.66693444  0.54594402  0.62465962    -0.03660
C189        C  0.65892412  0.56418673  0.64833414     0.04950
C190        C  0.63224683  0.55725838  0.65295561     0.03040
H191        H  0.68638899  0.54527160  0.61391922     0.08150
H192        H  0.61847787  0.56772524  0.66854017     0.06980
N193        N  0.85748020  0.93184629  0.91673149    -0.27410
N194        N  0.87975213  0.94751497  0.91664092    -0.35260
C195        C  0.88329167  0.95962928  0.94425724     0.00930
C196        C  0.86218540  0.95154258  0.96274244     0.06960
C197        C  0.84612394  0.93381919  0.94462963    -0.06140
H198        H  0.90125285  0.97108455  0.95127709     0.07630
H199        H  0.82912011  0.92092785  0.95206088     0.08830
Cu200      Cu  0.90831241  0.94575518  0.88272740     0.44170
Cu201      Cu  0.84785213  0.90375124  0.88084485     0.41990
Cu202      Cu  0.90331842  0.89118094  0.82548792     0.43880
N203        N  0.94010069  0.93405849  0.85535829    -0.34790
N204        N  0.93888365  0.91311786  0.83451918    -0.29050
C205        C  0.96376886  0.90777021  0.82407179    -0.05150
C206        C  0.98134208  0.92633114  0.83926451     0.07070
C207        C  0.96556214  0.94269342  0.85877966     0.00870
H208        H  0.96882380  0.89063783  0.80794332     0.08520
H209        H  0.97223093  0.95842454  0.87569115     0.07600
N210        N  0.86628333  0.87045616  0.82444366    -0.36240
N211        N  0.84656003  0.87467080  0.84412832    -0.28420
C212        C  0.82651852  0.85594065  0.83748127    -0.03660
C213        C  0.83411277  0.83889823  0.81278800     0.04950
C214        C  0.85923295  0.84907987  0.80483513     0.03040
H215        H  0.80814668  0.85411890  0.85038298     0.08150
H216        H  0.87165647  0.84165756  0.78620282     0.06980
N217        N  0.13599468  0.93092220  0.91293255    -0.27410
N218        N  0.11403020  0.94698653  0.91333492    -0.35260
C219        C  0.11132016  0.95935221  0.94094590     0.00930
C220        C  0.13268650  0.95102623  0.95888746     0.06960
C221        C  0.14799969  0.93287778  0.94048292    -0.06140
H222        H  0.09374220  0.97118617  0.94837298     0.07630
H223        H  0.16494415  0.91976700  0.94752387     0.08830
Cu224      Cu  0.08485543  0.94548392  0.88009215     0.44170
Cu225      Cu  0.14435468  0.90264927  0.87685071     0.41990
Cu226      Cu  0.08831703  0.89133659  0.82192769     0.43880
N227        N  0.05245753  0.93394266  0.85353102    -0.34790
N228        N  0.05306611  0.91317467  0.83246840    -0.29050
C229        C  0.02788951  0.90789174  0.82282932    -0.05150
C230        C  0.01078867  0.92632041  0.83876845     0.07070
C231        C  0.02713167  0.94253289  0.85787526     0.00870
H232        H  0.02234714  0.89090122  0.80671449     0.08520
H233        H  0.02096759  0.95811132  0.87514901     0.07600
N234        N  0.12532043  0.87071169  0.81974433    -0.36240
N235        N  0.14508156  0.87431663  0.83951213    -0.28420
C236        C  0.16497270  0.85572574  0.83232242    -0.03660
C237        C  0.15745453  0.83944288  0.80692438     0.04950
C238        C  0.13227527  0.84994203  0.79942302     0.03040
H239        H  0.18319356  0.85349615  0.84542173     0.08150
H240        H  0.11960120  0.84300761  0.78077012     0.06980
N241        N  0.85865630  0.97312488  0.04225416    -0.27410
N242        N  0.88118232  0.95803508  0.04171643    -0.35260
C243        C  0.88424024  0.94585058  0.01406889     0.00930
C244        C  0.86254499  0.95328712  0.99621861     0.06960
C245        C  0.84664151  0.97070034  0.01474508    -0.06140
H246        H  0.90224190  0.93488992  0.00651944     0.07630
H247        H  0.82926571  0.98314724  0.00777834     0.08830
Cu248      Cu  0.91056901  0.96101574  0.07460448     0.44170
Cu249      Cu  0.84955352  0.00115687  0.07832122     0.41990
Cu250      Cu  0.90680892  0.01741662  0.13023912     0.43880
N251        N  0.94301309  0.97420089  0.10025359    -0.34790
N252        N  0.94229065  0.99588772  0.12028254    -0.29050
C253        C  0.96743193  0.00182149  0.12961833    -0.05150
C254        C  0.98463365  0.98285176  0.11454883     0.07070
C255        C  0.96839156  0.96565914  0.09626718     0.00870
H256        H  0.97285809  0.01947725  0.14499727     0.08520
H257        H  0.97463785  0.94931263  0.07981846     0.07600
N258        N  0.86886405  0.03554888  0.13374367    -0.36240
N259        N  0.84849992  0.02994781  0.11528872    -0.28420
C260        C  0.82778182  0.04708980  0.12332821    -0.03660
C261        C  0.83534762  0.06415645  0.14809511     0.04950
C262        C  0.86154092  0.05624029  0.15396997     0.03040
H263        H  0.80879751  0.04757715  0.11150166     0.08150
H264        H  0.87485159  0.06583809  0.17071375     0.06980
N265        N  0.13807859  0.97332318  0.03802269    -0.27410
N266        N  0.11560297  0.95803620  0.03834255    -0.35260
C267        C  0.11190397  0.94557106  0.01092103     0.00930
C268        C  0.13313821  0.95302306  0.99233620     0.06960
C269        C  0.14942005  0.97075974  0.01017778    -0.06140
H270        H  0.09375700  0.93439744  0.00403839     0.07630
H271        H  0.16658184  0.98328726  0.00255435     0.08830
Cu272      Cu  0.08712120  0.96112440  0.07218888     0.44170
Cu273      Cu  0.14799422  0.00161437  0.07359843     0.41990
Cu274      Cu  0.09225836  0.01792884  0.12751104     0.43880
N275        N  0.05535096  0.97438568  0.09874109    -0.34790
N276        N  0.05653527  0.99618245  0.11862504    -0.29050
C277        C  0.03160524  0.00203969  0.12863797    -0.05150
C278        C  0.01406682  0.98291848  0.11415033     0.07070
C279        C  0.02989196  0.96571418  0.09551416     0.00870
H280        H  0.02652235  0.01974421  0.14407343     0.08520
H281        H  0.02328035  0.94925712  0.07933396     0.07600
N282        N  0.13050126  0.03575401  0.12992295    -0.36240
N283        N  0.15030217  0.03007779  0.11073687    -0.28420
C284        C  0.17157279  0.04664316  0.11842726    -0.03660
C285        C  0.16500866  0.06324954  0.14380990     0.04950
C286        C  0.13876567  0.05594944  0.15028474     0.03040
H287        H  0.19027154  0.04703971  0.10602420     0.08150
H288        H  0.12623960  0.06543603  0.16783418     0.06980
N289        N  0.85772952  0.47369464  0.91687631    -0.27410
N290        N  0.88038307  0.45884234  0.91690487    -0.35260
C291        C  0.88421988  0.44700875  0.94461802     0.00930
C292        C  0.86287357  0.45442480  0.96299260     0.06960
C293        C  0.84636291  0.47142144  0.94473538    -0.06140
H294        H  0.90246100  0.43624896  0.95175180     0.07630
H295        H  0.82904260  0.48375403  0.95205370     0.08830
Cu296      Cu  0.90874305  0.46173168  0.88287885     0.44170
Cu297      Cu  0.84781720  0.50159358  0.88105214     0.41990
Cu298      Cu  0.90336145  0.51778402  0.82658244     0.43880
N299        N  0.94037185  0.47474978  0.85586158    -0.34790
N300        N  0.93914742  0.49627237  0.83562027    -0.29050
C301        C  0.96408809  0.50217262  0.82553119    -0.05150
C302        C  0.98166080  0.48334264  0.84031839     0.07070
C303        C  0.96583682  0.46627603  0.85920754     0.00870
H304        H  0.96915962  0.51974206  0.80985888     0.08520
H305        H  0.97245771  0.45009355  0.87567716     0.07600
N306        N  0.86553238  0.53669067  0.82532756    -0.36240
N307        N  0.84592101  0.53118649  0.84488810    -0.28420
C308        C  0.82527759  0.54912747  0.83867154    -0.03660
C309        C  0.83226600  0.56675158  0.81419958     0.04950
C310        C  0.85770550  0.55808192  0.80606435     0.03040
H311        H  0.80685802  0.54988715  0.85158676     0.08150
H312        H  0.87007346  0.56750565  0.78828047     0.06980
N313        N  0.13657881  0.47328026  0.91348927    -0.27410
N314        N  0.11383975  0.45848631  0.91398858    -0.35260
C315        C  0.11050018  0.44643806  0.94168883     0.00930
C316        C  0.13225070  0.45365305  0.95959694     0.06960
C317        C  0.14848715  0.47077217  0.94104736    -0.06140
H318        H  0.09233239  0.43568206  0.94919430     0.07630
H319        H  0.16602616  0.48300871  0.94801852     0.08830
Cu320      Cu  0.08477960  0.46172032  0.88075550     0.44170
Cu321      Cu  0.14596668  0.50120128  0.87741505     0.41990
Cu322      Cu  0.08928478  0.51794444  0.82458004     0.43880
N323        N  0.05265167  0.47488233  0.85464086    -0.34790
N324        N  0.05356510  0.49647485  0.83445422    -0.29050
C325        C  0.02846570  0.50233520  0.82492422    -0.05150
C326        C  0.01111727  0.48340724  0.84002567     0.07070
C327        C  0.02723301  0.46633135  0.85851622     0.00870
H328        H  0.02316029  0.51990889  0.80938528     0.08520
H329        H  0.02087225  0.45004362  0.87503640     0.07600
N330        N  0.12741331  0.53617386  0.82194754    -0.36240
N331        N  0.14746649  0.53038913  0.84082123    -0.28420
C332        C  0.16828766  0.54787217  0.83370845    -0.03660
C333        C  0.16100625  0.56530657  0.80925814     0.04950
C334        C  0.13509960  0.55732893  0.80229040     0.03040
H335        H  0.18695575  0.54862866  0.84616515     0.08150
H336        H  0.12234125  0.56712506  0.78512110     0.06980
N337        N  0.85853530  0.43355228  0.04268567    -0.27410
N338        N  0.88113756  0.44861527  0.04229094    -0.35260
C339        C  0.88460362  0.46042919  0.01450194     0.00930
C340        C  0.86307836  0.45277786  0.99645542     0.06960
C341        C  0.84683966  0.43566850  0.01498498    -0.06140
H342        H  0.90272286  0.47133683  0.00707909     0.07630
H343        H  0.82947329  0.42317274  0.00794375     0.08830
Cu344      Cu  0.91004806  0.44600777  0.07573456     0.44170
Cu345      Cu  0.84906089  0.40559638  0.07867599     0.41990
Cu346      Cu  0.90565969  0.38937061  0.13137315     0.43880
N347        N  0.94224046  0.43268916  0.10163144    -0.34790
N348        N  0.94130497  0.41088973  0.12157196    -0.29050
C349        C  0.96640923  0.40460035  0.13070953    -0.05150
C350        C  0.98380200  0.42346487  0.11562742     0.07070
C351        C  0.96771361  0.44097610  0.09754915     0.00870
H352        H  0.97167445  0.38670775  0.14586895     0.08520
H353        H  0.97411881  0.45725169  0.08103695     0.07600
N354        N  0.86791526  0.37031324  0.13365876    -0.36240
N355        N  0.84782710  0.37587367  0.11478673    -0.28420
C356        C  0.82734686  0.35777873  0.12153087    -0.03660
C357        C  0.83499210  0.33991759  0.14556296     0.04950
C358        C  0.86061323  0.34870778  0.15294795     0.03040
H359        H  0.80860970  0.35702768  0.10920431     0.08150
H360        H  0.87346553  0.33918717  0.17019501     0.06980
N361        N  0.13784176  0.43250254  0.03920778    -0.27410
N362        N  0.11513469  0.44727592  0.03917955    -0.35260
C363        C  0.11125559  0.45914781  0.01150168     0.00930
C364        C  0.13257966  0.45183227  0.99307607     0.06960
C365        C  0.14916724  0.43485802  0.01130905    -0.06140
H366        H  0.09297739  0.46986168  0.00441603     0.07630
H367        H  0.16654366  0.42263955  0.00395919     0.08830
Cu368      Cu  0.08652123  0.44428139  0.07288679     0.44170
Cu369      Cu  0.14801453  0.40476342  0.07523868     0.41990
Cu370      Cu  0.09085521  0.38623129  0.12650603     0.43880
N371        N  0.05453943  0.43100888  0.09918845    -0.34790
N372        N  0.05544092  0.40868731  0.11848318    -0.29050
C373        C  0.03049269  0.40306753  0.12865164    -0.05150
C374        C  0.01322312  0.42288972  0.11486434     0.07070
C375        C  0.02923241  0.44025276  0.09646646     0.00870
H376        H  0.02519180  0.38509130  0.14371625     0.08520
H377        H  0.02282034  0.45726449  0.08080912     0.07600
N378        N  0.12902597  0.36853569  0.12956123    -0.36240
N379        N  0.14950848  0.37534568  0.11174252    -0.28420
C380        C  0.17061744  0.35881120  0.11989947    -0.03660
C381        C  0.16317411  0.34073535  0.14401658     0.04950
C382        C  0.13659531  0.34751088  0.14933054     0.03040
H383        H  0.18982685  0.35949082  0.10858774     0.08150
H384        H  0.12320885  0.33706808  0.16543300     0.06980
O385        O  0.25217914  0.73419286  0.68538898    -0.73060
O386        O  0.21086815  0.67041489  0.72753168    -0.74040
O387        O  0.20987857  0.73318016  0.72784901    -0.62660
O388        O  0.25289242  0.67113305  0.68532969    -0.71070
O389        O  0.28149665  0.67077990  0.72407458    -0.70620
O390        O  0.23983681  0.73476303  0.76515320    -0.61880
O391        O  0.23918691  0.67195020  0.76661223    -0.74390
O392        O  0.28221034  0.73351181  0.72281508    -0.73160
Cu393      Cu  0.23045028  0.70225803  0.70517411     1.04560
Cu394      Cu  0.26172073  0.70278476  0.74599124     1.04330
C395        C  0.27348760  0.74415817  0.69772314     0.93140
C396        C  0.21877305  0.66080847  0.75341358     0.92280
C397        C  0.21840209  0.74432835  0.75283399     0.84420
C398        C  0.27330571  0.66020123  0.69868790     0.90690
O399        O  0.78168896  0.73377389  0.73334425    -0.73060
O400        O  0.73867620  0.67228315  0.68995054    -0.74040
O401        O  0.73940748  0.73514367  0.69094573    -0.62660
O402        O  0.78078755  0.67104297  0.73232679    -0.71070
O403        O  0.75223977  0.67168721  0.77115473    -0.70620
O404        O  0.70956937  0.73398373  0.72846512    -0.61880
O405        O  0.71014087  0.67108567  0.72851531    -0.74390
O406        O  0.75181448  0.73465286  0.77088598    -0.73160
Cu407      Cu  0.76115242  0.70308773  0.71032236     1.04560
Cu408      Cu  0.72990908  0.70285296  0.75109128     1.04330
C409        C  0.77309613  0.74455366  0.75840771     0.93140
C410        C  0.71808330  0.66112700  0.70274825     0.92280
C411        C  0.71825062  0.74510062  0.70354226     0.84420
C412        C  0.77267109  0.66077306  0.75788477     0.90690
O413        O  0.25767945  0.17142441  0.26580146    -0.73460
O414        O  0.21474671  0.23322077  0.22271675    -0.74040
O415        O  0.21547020  0.17034136  0.22308274    -0.62660
O416        O  0.25683514  0.23397768  0.26534991    -0.71070
O417        O  0.28673063  0.23344180  0.22778246    -0.70620
O418        O  0.24391043  0.17163301  0.18431884    -0.61880
O419        O  0.24443796  0.23439055  0.18525452    -0.74390
O420        O  0.28610180  0.17050618  0.22682695    -0.73160
Cu421      Cu  0.23514568  0.20222660  0.24554669     1.04560
Cu422      Cu  0.26633168  0.20251285  0.20472184     1.04330
C423        C  0.27831116  0.16077685  0.25273711     0.93140
C424        C  0.22307850  0.24418635  0.19752909     0.92280
C425        C  0.22328646  0.16061703  0.19718519     0.84420
C426        C  0.27811398  0.24389868  0.25298284     0.90690
O427        O  0.71384098  0.17142832  0.23217577    -0.73060
O428        O  0.75677150  0.23401880  0.18988084    -0.74040
O429        O  0.75638017  0.17137601  0.18997321    -0.62660
O430        O  0.71429083  0.23428233  0.23188979    -0.71070
O431        O  0.74247528  0.23354846  0.27098377    -0.70620
O432        O  0.78554141  0.17165109  0.22805609    -0.61880
O433        O  0.78499766  0.23453958  0.22895658    -0.74390
O434        O  0.74298618  0.17076034  0.27019493    -0.73160
Cu435      Cu  0.73430248  0.20276263  0.20967092     1.04560
Cu436      Cu  0.76501959  0.20260684  0.25087537     1.04330
C437        C  0.72185077  0.16067508  0.25759554     0.93140
C438        C  0.77727644  0.24477275  0.20325109     0.92280
C439        C  0.77753027  0.16129228  0.20247007     0.84420
C440        C  0.72198929  0.24434883  0.25766275     0.90690
C441        C  0.19878848  0.30256392  0.14113211    -0.26430
C442        C  0.17919365  0.31698469  0.15849175    -0.14510
C443        C  0.17467773  0.30787176  0.18893504     0.36120
C444        C  0.18893000  0.28382046  0.20074452    -0.25880
C445        C  0.20814434  0.26891540  0.18320479    -0.15120
C446        C  0.21324493  0.27863902  0.15300930     0.37210
N447        N  0.23274637  0.26408078  0.13425674    -0.89370
H448        H  0.20234101  0.30937384  0.11776555     0.18320
H449        H  0.18528685  0.27705722  0.22412112     0.18310
N450        N  0.15609380  0.32338825  0.20805677    -0.88400
H451        H  0.23463313  0.27460744  0.11310525     0.35690
H452        H  0.22556560  0.24290631  0.12971442     0.40790
H453        H  0.16354431  0.34468638  0.21119415     0.40410
H454        H  0.15499784  0.31376021  0.22973393     0.35300
C455        C  0.81598706  0.31585967  0.19119509    -0.26430
C456        C  0.81992553  0.31542076  0.15948544    -0.14510
C457        C  0.80966714  0.29159352  0.14214480     0.36120
C458        C  0.79552891  0.26913675  0.15702466    -0.25880
C459        C  0.79201490  0.26930784  0.18881934    -0.15120
C460        C  0.80212898  0.29323732  0.20600333     0.37210
N461        N  0.79780646  0.29578996  0.23826333    -0.89370
H462        H  0.82355741  0.33414470  0.20456496     0.18320
H463        H  0.78793711  0.25085574  0.14366802     0.18310
N464        N  0.81431229  0.28841742  0.10989487    -0.88400
H465        H  0.80746434  0.27845279  0.24935177     0.35690
H466        H  0.77727552  0.29444829  0.24254020     0.40790
H467        H  0.82770993  0.30400230  0.10144673     0.40410
H468        H  0.79606355  0.29144759  0.09870329     0.35300
C469        C  0.18776902  0.58595054  0.76706865    -0.26430
C470        C  0.17621946  0.58988036  0.79593760    -0.14510
C471        C  0.17899333  0.61725324  0.81110918     0.36120
C472        C  0.19343013  0.63993231  0.79695395    -0.25880
C473        C  0.20446104  0.63617869  0.76782865    -0.15120
C474        C  0.20192276  0.60887680  0.75279225     0.37210
N475        N  0.21456521  0.60421820  0.72368154    -0.89370
H476        H  0.18571881  0.56489739  0.75567117     0.18320
H477        H  0.19552669  0.66090754  0.80850179     0.18310
N478        N  0.16725209  0.62304633  0.84050216    -0.88400
H479        H  0.21204305  0.58242145  0.71659389     0.35690
H480        H  0.20471542  0.61725940  0.70756521     0.40790
H481        H  0.15666802  0.60497986  0.84888950     0.40410
H482        H  0.15329195  0.63991478  0.83763877     0.35300
C483        C  0.81003855  0.58898689  0.76954668    -0.26430
C484        C  0.81668056  0.59091235  0.80058714    -0.14510
C485        C  0.80814462  0.61559323  0.81774120     0.36120
C486        C  0.79323177  0.63762433  0.80328042    -0.25880
C487        C  0.78690287  0.63590915  0.77211761    -0.15120
C488        C  0.79483325  0.61081273  0.75519745     0.37210
N489        N  0.78670292  0.60579018  0.72410691    -0.89370
H490        H  0.81608639  0.56984894  0.75650684     0.18320
H491        H  0.78727095  0.65678280  0.81633654     0.18310
N492        N  0.81529122  0.61997479  0.84924616    -0.88400
H493        H  0.80345288  0.60867918  0.71015071     0.35690
H494        H  0.77196930  0.62044727  0.71693295     0.40790
H495        H  0.82854060  0.60405804  0.85721880     0.40410
H496        H  0.79782634  0.61830376  0.86223987     0.35300
C497        C  0.19448291  0.10680619  0.13895469    -0.26430
C498        C  0.18113557  0.08682301  0.15811895    -0.14510
C499        C  0.18231103  0.09088882  0.19017019     0.36120
C500        C  0.19567061  0.11545078  0.20198037    -0.25880
C501        C  0.20887274  0.13563177  0.18285843    -0.15120
C502        C  0.20853299  0.13102754  0.15090013     0.37210
N503        N  0.22153942  0.15138328  0.13055774    -0.89370
H504        H  0.19353920  0.10380092  0.11441443     0.18320
H505        H  0.19643973  0.11822323  0.22656680     0.18310
N506        N  0.17150344  0.06998910  0.21155220    -0.88400
H507        H  0.21709888  0.14631678  0.10780924     0.35690
H508        H  0.24213424  0.14832859  0.13288452     0.40790
H509        H  0.16588343  0.05034248  0.20105489     0.40410
H510        H  0.15451309  0.07933720  0.22143990     0.35300
C511        C  0.80310044  0.10557964  0.14436074    -0.26430
C512        C  0.82001772  0.08829312  0.16256002    -0.14510
C513        C  0.82273953  0.09494002  0.19391192     0.36120
C514        C  0.80913259  0.11923989  0.20611466    -0.25880
C515        C  0.79241038  0.13680303  0.18787638    -0.15120
C516        C  0.78942124  0.12986218  0.15654052     0.37210
N517        N  0.77293084  0.14768415  0.13701388    -0.89370
H518        H  0.80113595  0.10067110  0.12024682     0.18320
H519        H  0.81116125  0.12405848  0.23024705     0.18310
N520        N  0.83879689  0.07664645  0.21342851    -0.88400
H521        H  0.77253319  0.13922511  0.11480445     0.35690
H522        H  0.78183620  0.16847714  0.13555691     0.40790
H523        H  0.82986793  0.05583171  0.21412313     0.40410
H524        H  0.83876229  0.08461702  0.23583543     0.35300
C525        C  0.17538938  0.76894298  0.76433475    -0.26430
C526        C  0.20328277  0.76857882  0.76727494    -0.14510
C527        C  0.21617157  0.79187776  0.78283272     0.36120
C528        C  0.20078050  0.81493844  0.79498315    -0.25880
C529        C  0.17277016  0.81510674  0.79244682    -0.15120
C530        C  0.16005338  0.79161166  0.77705050     0.37210
N531        N  0.13153949  0.78996354  0.77503889    -0.89370
H532        H  0.16528059  0.75112815  0.75256882     0.18320
H533        H  0.21081918  0.83294337  0.80644774     0.18310
N534        N  0.24482215  0.79269339  0.78534393    -0.88400
H535        H  0.12628363  0.78914630  0.75192461     0.35690
H536        H  0.12531792  0.77032393  0.78530257     0.40790
H537        H  0.25043530  0.77627444  0.80078913     0.40410
H538        H  0.25113145  0.81256719  0.79500041     0.35300
C539        C  0.79158750  0.81876438  0.79239300    -0.26430
C540        C  0.81877998  0.81448680  0.79883700    -0.14510
C541        C  0.83041838  0.78673899  0.79273307     0.36120
C542        C  0.81494537  0.76443290  0.77966331    -0.25880
C543        C  0.78792545  0.76886139  0.77277288    -0.15120
C544        C  0.77603490  0.79647553  0.77912799     0.37210
N545        N  0.74883535  0.80330874  0.77121286    -0.89370
H546        H  0.78247746  0.83992181  0.79700160     0.18320
H547        H  0.82406768  0.74326175  0.77511657     0.18310
N548        N  0.85746489  0.77998257  0.80078771    -0.88400
H549        H  0.73821461  0.80622033  0.79155033     0.35690
H550        H  0.73954497  0.78635572  0.75917066     0.40790
H551        H  0.86039256  0.78496267  0.82386998     0.40410
H552        H  0.87037980  0.79265542  0.78747256     0.35300
C553        C  0.69503140  0.60200517  0.64635741    -0.26430
C554        C  0.67465211  0.58808416  0.66305859    -0.14510
C555        C  0.66934818  0.59758560  0.69317374     0.36120
C556        C  0.68348782  0.62168237  0.70516367    -0.25880
C557        C  0.70361869  0.63601364  0.68832514    -0.15120
C558        C  0.70985629  0.62546882  0.65870364     0.37210
N559        N  0.73099489  0.63855827  0.64102190    -0.89370
H560        H  0.69934977  0.59475030  0.62333095     0.18320
H561        H  0.67898791  0.62893505  0.72815958     0.18310
N562        N  0.65007047  0.58242615  0.71181056    -0.88400
H563        H  0.73164873  0.62951292  0.61907390     0.35690
H564        H  0.74905269  0.63280469  0.65144795     0.40790
H565        H  0.65721538  0.56111578  0.71553156     0.40410
H566        H  0.64845927  0.59230397  0.73329943     0.35300
C567        C  0.31328481  0.58981692  0.68719556    -0.26430
C568        C  0.31628336  0.58974713  0.65537726    -0.14510
C569        C  0.30449696  0.61229609  0.63784291     0.36120
C570        C  0.29028495  0.63477022  0.65265112    -0.25880
C571        C  0.28740967  0.63506550  0.68457535    -0.15120
C572        C  0.29812140  0.61144338  0.70198999     0.37210
N573        N  0.29329019  0.60785910  0.73424120    -0.89370
H574        H  0.32187426  0.57212916  0.70060383     0.18320
H575        H  0.28187337  0.65253627  0.63922228     0.18310
N576        N  0.30765714  0.61278089  0.60519268    -0.88400
H577        H  0.28512997  0.58687659  0.73748622     0.35690
H578        H  0.27845882  0.62203604  0.74201744     0.40790
H579        H  0.32797084  0.61582849  0.60053951     0.40410
H580        H  0.29765770  0.63078515  0.59570213     0.35300
C581        C  0.68271959  0.31487446  0.26972601    -0.26430
C582        C  0.67897006  0.31449084  0.30146709    -0.14510
C583        C  0.68969792  0.29096421  0.31886918     0.36120
C584        C  0.70402177  0.26872542  0.30399890    -0.25880
C585        C  0.70724237  0.26877647  0.27215717    -0.15120
C586        C  0.69672694  0.29246118  0.25493060     0.37210
N587        N  0.70073682  0.29498182  0.22260687    -0.89370
H588        H  0.67482250  0.33293545  0.25629142     0.18320
H589        H  0.71192938  0.25065553  0.31740590     0.18310
N590        N  0.68530127  0.28779435  0.35117072    -0.88400
H591        H  0.69108962  0.27750401  0.21170349     0.35690
H592        H  0.72123572  0.29393207  0.21808277     0.40790
H593        H  0.67158156  0.30296022  0.35960051     0.40410
H594        H  0.70353417  0.29145736  0.36221000     0.35300
C595        C  0.29905233  0.32066384  0.27563600    -0.26430
C596        C  0.32041579  0.31473985  0.29544027    -0.14510
C597        C  0.32754446  0.28517426  0.30175271     0.36120
C598        C  0.31344317  0.26233337  0.28752545    -0.25880
C599        C  0.29237855  0.26834465  0.26748800    -0.15120
C600        C  0.28491448  0.29764558  0.26151340     0.37210
N601        N  0.26342663  0.30381868  0.24064155    -0.89370
H602        H  0.29369798  0.34330371  0.27084721     0.18320
H603        H  0.31883794  0.23969910  0.29232538     0.18310
N604        N  0.34829063  0.27740285  0.32301941    -0.88400
H605        H  0.26075199  0.32652519  0.23833281     0.35690
H606        H  0.24581508  0.29550628  0.25021440     0.40790
H607        H  0.35631381  0.29573787  0.33403930     0.40410
H608        H  0.36374652  0.26760775  0.31062419     0.35300
C609        C  0.31674508  0.11410648  0.30941615    -0.26430
C610        C  0.31895235  0.08763837  0.29319685    -0.14510
C611        C  0.30783921  0.08521978  0.26374226     0.36120
C612        C  0.29481495  0.10962664  0.25087970    -0.25880
C613        C  0.29262451  0.13614135  0.26706285    -0.15120
C614        C  0.30362614  0.13850012  0.29661327     0.37210
N615        N  0.30237318  0.16590854  0.31292932    -0.89370
H616        H  0.32557974  0.11579500  0.33196592     0.18320
H617        H  0.28602466  0.10789846  0.22830451     0.18310
N618        N  0.30917121  0.05780413  0.24745177    -0.88400
H619        H  0.31261787  0.16431508  0.33369423     0.35690
H620        H  0.28237158  0.16979175  0.31842816     0.40790
H621        H  0.32924063  0.05375468  0.24240512     0.40410
H622        H  0.29923695  0.05946232  0.22649418     0.35300
C623        C  0.69808868  0.10130806  0.31334193    -0.26430
C624        C  0.67788220  0.08749600  0.29627093    -0.14510
C625        C  0.67269180  0.09742796  0.26624255     0.36120
C626        C  0.68692755  0.12163769  0.25461043    -0.25880
C627        C  0.70682667  0.13587672  0.27185013    -0.15120
C628        C  0.71256333  0.12534875  0.30161686     0.37210
N629        N  0.73280081  0.13912844  0.32008117    -0.89370
H630        H  0.70216578  0.09390136  0.33639329     0.18320
H631        H  0.68272350  0.12903323  0.23157002     0.18310
N632        N  0.65345394  0.08257051  0.24730991    -0.88400
H633        H  0.73518301  0.12794300  0.34079498     0.35690
H634        H  0.72602160  0.16021006  0.32560355     0.40790
H635        H  0.66058084  0.06130587  0.24333092     0.40410
H636        H  0.65190414  0.09277080  0.22595527     0.35300
C637        C  0.70136138  0.81735636  0.66410011    -0.26430
C638        C  0.67349785  0.81490355  0.66134557    -0.14510
C639        C  0.66057784  0.78936544  0.67251538     0.36120
C640        C  0.67575761  0.76723891  0.68664385    -0.25880
C641        C  0.70358300  0.76968431  0.68931565    -0.15120
C642        C  0.71653860  0.79536962  0.67829385     0.37210
N643        N  0.74460859  0.80086431  0.68254973    -0.89370
H644        H  0.71141034  0.83703605  0.65603878     0.18320
H645        H  0.66587544  0.74755684  0.69498281     0.18310
N646        N  0.63225610  0.78548397  0.66869856    -0.88400
H647        H  0.75390955  0.79903826  0.66125090     0.35690
H648        H  0.75349421  0.78579753  0.69734984     0.40790
H649        H  0.62844613  0.78397468  0.64525657     0.40410
H650        H  0.62593215  0.76560996  0.67837863     0.35300
C651        C  0.29161040  0.81937320  0.66611100    -0.26430
C652        C  0.31758791  0.81416633  0.65544676    -0.14510
C653        C  0.32871259  0.78577488  0.65818457     0.36120
C654        C  0.31383239  0.76332519  0.67228080    -0.25880
C655        C  0.28797133  0.76858076  0.68316988    -0.15120
C656        C  0.27674259  0.79707080  0.68038041     0.37210
N657        N  0.25079576  0.80443830  0.69231580    -0.89370
H658        H  0.28308184  0.84120003  0.66412966     0.18320
H659        H  0.32228426  0.74147561  0.67443643     0.18310
N660        N  0.35481910  0.77969965  0.64605315    -0.88400
H661        H  0.25352927  0.82045866  0.70917739     0.35690
H662        H  0.24169745  0.78660904  0.70316509     0.40790
H663        H  0.35385104  0.78242384  0.62234677     0.40410
H664        H  0.36004677  0.75774923  0.64994414     0.35300
loop_ 
_geom_bond_atom_site_label_1 
_geom_bond_atom_site_label_2 
_geom_bond_distance 
_geom_bond_site_symmetry_2 
_ccdc_geom_bond_type 
N1            N2   1.321       .  A
N1            C5   1.350       .  A
N1           Cu9   2.081       .  S
N2            C3   1.340       .  A
N2           Cu8   2.060       .  S
C3            C4   1.379       .  A
C3            H6   1.082       .  S
C4            C5   1.386       .  A
C4           C76   1.467       .  S
C5            H7   1.082       .  S
Cu8          N11   2.061       .  S
Cu9          N19   2.082       .  S
Cu10         N12   2.077       .  S
Cu10         N18   2.079       .  S
N11          N12   1.320       .  A
N11          C15   1.341       .  A
N12          C13   1.349       .  A
C13          C14   1.387       .  A
C13          H16   1.082       .  S
C14          C15   1.382       .  A
C14          C38   1.473       .  S
C15          H17   1.082       .  S
N18          N19   1.325       .  A
N18          C22   1.343       .  A
N19          C20   1.346       .  A
C20          C21   1.383       .  A
C20          H23   1.082       .  S
C21          C22   1.382       .  A
C21         C652   1.477       .  S
C22          H24   1.082       .  S
N25          N26   1.321       .  A
N25          C29   1.350       .  A
N25         Cu33   2.082       .  S
N26          C27   1.340       .  A
N26         Cu32   2.063       .  S
C27          C28   1.380       .  A
C27          H30   1.082       .  S
C28          C29   1.386       .  A
C28          C52   1.468       .  S
C29          H31   1.082       .  S
Cu32         N35   2.063       .  S
Cu33         N43   2.083       .  S
Cu34         N36   2.074       .  S
Cu34         N42   2.076       .  S
N35          N36   1.320       .  A
N35          C39   1.341       .  A
N36          C37   1.349       .  A
C37          C38   1.387       .  A
C37          H40   1.082       .  S
C38          C39   1.382       .  A
C39          H41   1.082       .  S
N42          N43   1.324       .  A
N42          C46   1.343       .  A
N43          C44   1.346       .  A
C44          C45   1.386       .  A
C44          H47   1.082       .  S
C45          C46   1.384       .  A
C45         C638   1.484       .  S
C46          H48   1.081       .  S
N49          N50   1.321       .  A
N49          C53   1.350       .  A
N49         Cu57   2.082       .  S
N50          C51   1.340       .  A
N50         Cu56   2.062       .  S
C51          C52   1.380       .  A
C51          H54   1.082       .  S
C52          C53   1.386       .  A
C53          H55   1.082       .  S
Cu56         N59   2.062       .  S
Cu57         N67   2.084   1_565  S
Cu58         N60   2.075   1_545  S
Cu58         N66   2.077       .  S
N59          N60   1.320       .  A
N59          C63   1.341       .  A
N60          C61   1.349   1_565  A
C61          C62   1.387   1_545  A
C61          H64   1.082       .  S
C62          C63   1.382       .  A
C62          C86   1.473       .  S
C63          H65   1.082       .  S
N66          N67   1.324       .  A
N66          C70   1.343       .  A
N67          C68   1.345       .  A
C68          C69   1.388       .  A
C68          H71   1.082       .  S
C69          C70   1.386       .  A
C69         C624   1.488       .  S
C70          H72   1.081       .  S
N73          N74   1.321       .  A
N73          C77   1.350       .  A
N73         Cu81   2.079   1_565  S
N74          C75   1.340       .  A
N74         Cu80   2.062       .  S
C75          C76   1.380       .  A
C75          H78   1.082       .  S
C76          C77   1.386       .  A
C77          H79   1.082       .  S
Cu80         N83   2.062       .  S
Cu81         N91   2.081       .  S
Cu82         N84   2.078   1_545  S
Cu82         N90   2.079       .  S
N83          N84   1.320       .  A
N83          C87   1.341       .  A
N84          C85   1.349       .  A
C85          C86   1.387       .  A
C85          H88   1.082   1_565  S
C86          C87   1.381       .  A
C87          H89   1.082       .  S
N90          N91   1.325       .  A
N90          C94   1.345       .  A
N91          C92   1.346       .  A
C92          C93   1.380       .  A
C92          H95   1.082       .  S
C93          C94   1.380       .  A
C93         C610   1.470       .  S
C94          H96   1.082       .  S
N97          N98   1.321       .  A
N97         C101   1.350       .  A
N97        Cu105   2.080       .  S
N98          C99   1.340       .  A
N98        Cu104   2.060       .  S
C99         C100   1.379       .  A
C99         H102   1.082       .  S
C100        C101   1.386       .  A
C100        C148   1.467       .  S
C101        H103   1.082       .  S
Cu104       N107   2.060       .  S
Cu105       N115   2.081       .  S
Cu106       N108   2.077       .  S
Cu106       N114   2.079       .  S
N107        N108   1.320       .  A
N107        C111   1.340       .  A
N108        C109   1.350       .  A
C109        C110   1.388       .  A
C109        H112   1.082       .  S
C110        C111   1.381       .  A
C110        C134   1.473       .  S
C111        H113   1.082       .  S
N114        N115   1.326       .  A
N114        C118   1.344       .  A
N115        C116   1.346       .  A
C116        C117   1.380       .  A
C116        H119   1.082       .  S
C117        C118   1.380       .  A
C117        C596   1.471       .  S
C118        H120   1.082       .  S
N121        N122   1.321       .  A
N121        C125   1.350       .  A
N121       Cu129   2.078       .  S
N122        C123   1.340       .  A
N122       Cu128   2.061       .  S
C123        C124   1.380       .  A
C123        H126   1.082       .  S
C124        C125   1.386       .  A
C124        C172   1.467       .  S
C125        H127   1.082       .  S
Cu128       N131   2.061       .  S
Cu129       N139   2.080       .  S
Cu130       N132   2.078       .  S
Cu130       N138   2.080       .  S
N131        N132   1.320       .  A
N131        C135   1.340       .  A
N132        C133   1.350       .  A
C133        C134   1.387       .  A
C133        H136   1.082       .  S
C134        C135   1.381       .  A
C135        H137   1.082       .  S
N138        N139   1.325       .  A
N138        C142   1.344       .  A
N139        C140   1.345       .  A
C140        C141   1.383       .  A
C140        H143   1.082       .  S
C141        C142   1.381       .  A
C141        C582   1.476       .  S
C142        H144   1.082       .  S
N145        N146   1.321       .  A
N145        C149   1.349       .  A
N145       Cu153   2.078       .  S
N146        C147   1.340       .  A
N146       Cu152   2.063       .  S
C147        C148   1.380       .  A
C147        H150   1.082       .  S
C148        C149   1.385       .  A
C149        H151   1.082       .  S
Cu152       N155   2.062       .  S
Cu153       N163   2.080       .  S
Cu154       N156   2.077       .  S
Cu154       N162   2.079       .  S
N155        N156   1.320       .  A
N155        C159   1.341       .  A
N156        C157   1.349       .  A
C157        C158   1.387       .  A
C157        H160   1.082       .  S
C158        C159   1.381       .  A
C158        C182   1.473       .  S
C159        H161   1.082       .  S
N162        N163   1.325       .  A
N162        C166   1.345       .  A
N163        C164   1.345       .  A
C164        C165   1.383       .  A
C164        H167   1.082       .  S
C165        C166   1.382       .  A
C165        C568   1.477       .  S
C166        H168   1.082       .  S
N169        N170   1.321       .  A
N169        C173   1.350       .  A
N169       Cu177   2.080       .  S
N170        C171   1.340       .  A
N170       Cu176   2.061       .  S
C171        C172   1.379       .  A
C171        H174   1.082       .  S
C172        C173   1.386       .  A
C173        H175   1.082       .  S
Cu176       N179   2.061       .  S
Cu177       N187   2.082       .  S
Cu178       N180   2.076       .  S
Cu178       N186   2.077       .  S
N179        N180   1.320       .  A
N179        C183   1.340       .  A
N180        C181   1.349       .  A
C181        C182   1.387       .  A
C181        H184   1.082       .  S
C182        C183   1.382       .  A
C183        H185   1.082       .  S
N186        N187   1.324       .  A
N186        C190   1.343       .  A
N187        C188   1.345       .  A
C188        C189   1.387       .  A
C188        H191   1.082       .  S
C189        C190   1.386       .  A
C189        C554   1.487       .  S
C190        H192   1.081       .  S
N193        N194   1.321       .  A
N193        C197   1.350       .  A
N193       Cu201   2.081       .  S
N194        C195   1.340       .  A
N194       Cu200   2.062       .  S
C195        C196   1.380       .  A
C195        H198   1.082       .  S
C196        C197   1.386       .  A
C196        C244   1.467       .  S
C197        H199   1.082       .  S
Cu200       N203   2.062       .  S
Cu201       N211   2.082       .  S
Cu202       N204   2.076       .  S
Cu202       N210   2.077       .  S
N203        N204   1.320       .  A
N203        C207   1.341       .  A
N204        C205   1.349       .  A
C205        C206   1.387       .  A
C205        H208   1.082       .  S
C206        C207   1.382       .  A
C206        C230   1.474   1_655  S
C207        H209   1.082       .  S
N210        N211   1.325       .  A
N210        C214   1.343       .  A
N211        C212   1.346       .  A
C212        C213   1.384       .  A
C212        H215   1.082       .  S
C213        C214   1.383       .  A
C213        C540   1.480       .  S
C214        H216   1.080       .  S
N217        N218   1.321       .  A
N217        C221   1.350       .  A
N217       Cu225   2.080       .  S
N218        C219   1.340       .  A
N218       Cu224   2.062       .  S
C219        C220   1.380       .  A
C219        H222   1.082       .  S
C220        C221   1.386       .  A
C220        C268   1.467       .  S
C221        H223   1.082       .  S
Cu224       N227   2.062       .  S
Cu225       N235   2.082       .  S
Cu226       N228   2.078       .  S
Cu226       N234   2.079       .  S
N227        N228   1.320       .  A
N227        C231   1.341       .  A
N228        C229   1.349       .  A
C229        C230   1.387       .  A
C229        H232   1.082       .  S
C230        C231   1.382       .  A
C231        H233   1.082       .  S
N234        N235   1.324       .  A
N234        C238   1.344       .  A
N235        C236   1.345       .  A
C236        C237   1.387       .  A
C236        H239   1.082       .  S
C237        C238   1.387       .  A
C237        C529   1.489       .  S
C238        H240   1.080       .  S
N241        N242   1.321       .  A
N241        C245   1.350       .  A
N241       Cu249   2.080   1_565  S
N242        C243   1.340       .  A
N242       Cu248   2.062       .  S
C243        C244   1.380   1_554  A
C243        H246   1.082       .  S
C244        C245   1.386   1_556  A
C245        H247   1.082       .  S
Cu248       N251   2.062       .  S
Cu249       N259   2.082       .  S
Cu250       N252   2.076   1_545  S
Cu250       N258   2.077       .  S
N251        N252   1.320       .  A
N251        C255   1.340       .  A
N252        C253   1.349   1_565  A
C253        C254   1.387   1_545  A
C253        H256   1.082       .  S
C254        C255   1.382       .  A
C254        C278   1.473   1_655  S
C255        H257   1.082       .  S
N258        N259   1.324       .  A
N258        C262   1.344       .  A
N259        C260   1.345       .  A
C260        C261   1.385       .  A
C260        H263   1.082       .  S
C261        C262   1.384       .  A
C261        C512   1.482       .  S
C262        H264   1.082       .  S
N265        N266   1.321       .  A
N265        C269   1.350       .  A
N265       Cu273   2.079   1_565  S
N266        C267   1.340       .  A
N266       Cu272   2.061       .  S
C267        C268   1.380   1_554  A
C267        H270   1.082       .  S
C268        C269   1.386   1_556  A
C269        H271   1.082       .  S
Cu272       N275   2.061       .  S
Cu273       N283   2.081       .  S
Cu274       N276   2.077   1_545  S
Cu274       N282   2.079       .  S
N275        N276   1.320       .  A
N275        C279   1.340       .  A
N276        C277   1.349   1_565  A
C277        C278   1.387   1_545  A
C277        H280   1.082       .  S
C278        C279   1.381       .  A
C279        H281   1.082       .  S
N282        N283   1.325       .  A
N282        C286   1.344       .  A
N283        C284   1.345       .  A
C284        C285   1.384       .  A
C284        H287   1.082       .  S
C285        C286   1.383       .  A
C285        C498   1.479       .  S
C286        H288   1.082       .  S
N289        N290   1.321       .  A
N289        C293   1.349       .  A
N289       Cu297   2.076       .  S
N290        C291   1.340       .  A
N290       Cu296   2.061       .  S
C291        C292   1.380       .  A
C291        H294   1.082       .  S
C292        C293   1.385       .  A
C292        C340   1.466       .  S
C293        H295   1.082       .  S
Cu296       N299   2.061       .  S
Cu297       N307   2.078       .  S
Cu298       N300   2.080       .  S
Cu298       N306   2.081       .  S
N299        N300   1.320       .  A
N299        C303   1.340       .  A
N300        C301   1.350       .  A
C301        C302   1.388       .  A
C301        H304   1.082       .  S
C302        C303   1.381       .  A
C302        C326   1.474   1_655  S
C303        H305   1.082       .  S
N306        N307   1.326       .  A
N306        C310   1.345       .  A
N307        C308   1.345       .  A
C308        C309   1.381       .  A
C308        H311   1.082       .  S
C309        C310   1.380       .  A
C309        C484   1.473       .  S
C310        H312   1.082       .  S
N313        N314   1.320       .  A
N313        C317   1.350       .  A
N313       Cu321   2.078       .  S
N314        C315   1.340       .  A
N314       Cu320   2.062       .  S
C315        C316   1.380       .  A
C315        H318   1.082       .  S
C316        C317   1.386       .  A
C316        C364   1.467       .  S
C317        H319   1.082       .  S
Cu320       N323   2.061       .  S
Cu321       N331   2.080       .  S
Cu322       N324   2.080       .  S
Cu322       N330   2.081       .  S
N323        N324   1.320       .  A
N323        C327   1.340       .  A
N324        C325   1.350       .  A
C325        C326   1.388       .  A
C325        H328   1.082       .  S
C326        C327   1.381       .  A
C327        H329   1.082       .  S
N330        N331   1.326       .  A
N330        C334   1.345       .  A
N331        C332   1.345       .  A
C332        C333   1.380       .  A
C332        H335   1.082       .  S
C333        C334   1.379       .  A
C333        C470   1.470       .  S
C334        H336   1.082       .  S
N337        N338   1.321       .  A
N337        C341   1.349       .  A
N337       Cu345   2.077       .  S
N338        C339   1.340       .  A
N338       Cu344   2.061       .  S
C339        C340   1.379   1_554  A
C339        H342   1.082       .  S
C340        C341   1.385   1_556  A
C341        H343   1.082       .  S
Cu344       N347   2.061       .  S
Cu345       N355   2.079       .  S
Cu346       N348   2.077       .  S
Cu346       N354   2.078       .  S
N347        N348   1.320       .  A
N347        C351   1.340       .  A
N348        C349   1.349       .  A
C349        C350   1.387       .  A
C349        H352   1.082       .  S
C350        C351   1.381       .  A
C350        C374   1.473   1_655  S
C351        H353   1.082       .  S
N354        N355   1.325       .  A
N354        C358   1.344       .  A
N355        C356   1.345       .  A
C356        C357   1.382       .  A
C356        H359   1.082       .  S
C357        C358   1.380       .  A
C357        C456   1.474       .  S
C358        H360   1.082       .  S
N361        N362   1.321       .  A
N361        C365   1.350       .  A
N361       Cu369   2.081       .  S
N362        C363   1.340       .  A
N362       Cu368   2.060       .  S
C363        C364   1.379   1_554  A
C363        H366   1.082       .  S
C364        C365   1.386   1_556  A
C365        H367   1.082       .  S
Cu368       N371   2.060       .  S
Cu369       N379   2.083       .  S
Cu370       N372   2.076       .  S
Cu370       N378   2.078       .  S
N371        N372   1.320       .  A
N371        C375   1.340       .  A
N372        C373   1.349       .  A
C373        C374   1.387       .  A
C373        H376   1.082       .  S
C374        C375   1.382       .  A
C375        H377   1.082       .  S
N378        N379   1.324       .  A
N378        C382   1.343       .  A
N379        C380   1.345       .  A
C380        C381   1.387       .  A
C380        H383   1.082       .  S
C381        C382   1.386       .  A
C381        C442   1.487       .  S
C382        H384   1.081       .  S
O385       Cu393   2.007       .  S
O385        C395   1.277       .  A
O386       Cu393   2.001       .  S
O386        C396   1.276       .  A
O387       Cu393   2.007       .  S
O387        C397   1.278       .  A
O388       Cu393   2.006       .  S
O388        C398   1.278       .  A
O389       Cu394   2.006       .  S
O389        C398   1.278       .  A
O390       Cu394   2.006       .  S
O390        C397   1.277       .  A
O391       Cu394   2.010       .  S
O391        C396   1.277       .  A
O392       Cu394   2.005       .  S
O392        C395   1.277       .  A
Cu393      Cu394   2.374       .  S
C395        C655   1.469       .  S
C396        C473   1.469       .  S
C397        C526   1.480       .  S
C398        C571   1.480       .  S
O399       Cu407   2.003       .  S
O399        C409   1.277       .  A
O400       Cu407   2.003       .  S
O400        C410   1.277       .  A
O401       Cu407   2.007       .  S
O401        C411   1.278       .  A
O402       Cu407   2.004       .  S
O402        C412   1.278       .  A
O403       Cu408   2.007       .  S
O403        C412   1.277       .  A
O404       Cu408   2.005       .  S
O404        C411   1.277       .  A
O405       Cu408   2.009       .  S
O405        C410   1.279       .  A
O406       Cu408   2.009       .  S
O406        C409   1.278       .  A
Cu407      Cu408   2.373       .  S
C409        C543   1.471       .  S
C410        C557   1.491       .  S
C411        C641   1.475       .  S
C412        C487   1.474       .  S
O413       Cu421   2.005       .  S
O413        C423   1.277       .  A
O414       Cu421   2.007       .  S
O414        C424   1.279       .  A
O415       Cu421   2.008       .  S
O415        C425   1.279       .  A
O416       Cu421   2.001       .  S
O416        C426   1.276       .  A
O417       Cu422   2.008       .  S
O417        C426   1.277       .  A
O418       Cu422   2.005       .  S
O418        C425   1.277       .  A
O419       Cu422   2.007       .  S
O419        C424   1.277       .  A
O420       Cu422   2.008       .  S
O420        C423   1.277       .  A
Cu421      Cu422   2.372       .  S
C423        C613   1.470       .  S
C424        C445   1.489       .  S
C425        C501   1.483       .  S
C426        C599   1.464       .  S
O427       Cu435   2.009       .  S
O427        C437   1.279       .  A
O428       Cu435   2.006       .  S
O428        C438   1.277       .  A
O429       Cu435   2.002       .  S
O429        C439   1.277       .  A
O430       Cu435   2.002       .  S
O430        C440   1.277       .  A
O431       Cu436   2.009       .  S
O431        C440   1.278       .  A
O432       Cu436   2.010       .  S
O432        C439   1.279       .  A
O433       Cu436   2.004       .  S
O433        C438   1.277       .  A
O434       Cu436   2.004       .  S
O434        C437   1.277       .  A
Cu435      Cu436   2.369       .  S
C437        C627   1.490       .  S
C438        C459   1.477       .  S
C439        C515   1.485       .  S
C440        C585   1.478       .  S
C441        C442   1.404       .  A
C441        C446   1.406       .  A
C441        H448   1.083       .  S
C442        C443   1.413       .  A
C443        C444   1.404       .  A
C443        N450   1.438       .  S
C444        C445   1.406       .  A
C444        H449   1.083       .  S
C445        C446   1.416       .  A
C446        N447   1.438       .  S
N447        H451   1.046       .  S
N447        H452   1.046       .  S
N450        H453   1.046       .  S
N450        H454   1.046       .  S
C455        C456   1.402       .  A
C455        C460   1.398       .  A
C455        H462   1.084       .  S
C456        C457   1.418       .  A
C457        C458   1.401       .  A
C457        N464   1.438       .  S
C458        C459   1.402       .  A
C458        H463   1.084       .  S
C459        C460   1.415       .  A
C460        N461   1.433       .  S
N461        H465   1.044       .  S
N461        H466   1.046       .  S
N464        H467   1.042       .  S
N464        H468   1.045       .  S
C469        C470   1.401       .  A
C469        C474   1.405       .  A
C469        H476   1.084       .  S
C470        C471   1.417       .  A
C471        C472   1.401       .  A
C471        N478   1.439       .  S
C472        C473   1.400       .  A
C472        H477   1.084       .  S
C473        C474   1.410       .  A
C474        N475   1.439       .  S
N475        H479   1.046       .  S
N475        H480   1.045       .  S
N478        H481   1.043       .  S
N478        H482   1.046       .  S
C483        C484   1.401       .  A
C483        C488   1.400       .  A
C483        H490   1.084       .  S
C484        C485   1.417       .  A
C485        C486   1.400       .  A
C485        N492   1.438       .  S
C486        C487   1.402       .  A
C486        H491   1.084       .  S
C487        C488   1.418       .  A
C488        N489   1.438       .  S
N489        H493   1.045       .  S
N489        H494   1.043       .  S
N492        H495   1.042       .  S
N492        H496   1.045       .  S
C497        C498   1.404       .  A
C497        C502   1.406       .  A
C497        H504   1.084       .  S
C498        C499   1.416       .  A
C499        C500   1.399       .  A
C499        N506   1.437       .  S
C500        C501   1.405       .  A
C500        H505   1.084       .  S
C501        C502   1.414       .  A
C502        N503   1.438       .  S
N503        H507   1.046       .  S
N503        H508   1.045       .  S
N506        H509   1.042       .  S
N506        H510   1.045       .  S
C511        C512   1.403       .  A
C511        C516   1.405       .  A
C511        H518   1.083       .  S
C512        C513   1.412       .  A
C513        C514   1.405       .  A
C513        N520   1.438       .  S
C514        C515   1.405       .  A
C514        H519   1.083       .  S
C515        C516   1.415       .  A
C516        N517   1.438       .  S
N517        H521   1.046       .  S
N517        H522   1.046       .  S
N520        H523   1.046       .  S
N520        H524   1.046       .  S
C525        C526   1.402       .  A
C525        C530   1.402       .  A
C525        H532   1.084       .  S
C526        C527   1.414       .  A
C527        C528   1.407       .  A
C527        N534   1.438       .  S
C528        C529   1.406       .  A
C528        H533   1.083       .  S
C529        C530   1.413       .  A
C530        N531   1.431       .  S
N531        H535   1.046       .  S
N531        H536   1.046       .  S
N534        H537   1.045       .  S
N534        H538   1.046       .  S
C539        C540   1.403       .  A
C539        C544   1.402       .  A
C539        H546   1.084       .  S
C540        C541   1.416       .  A
C541        C542   1.397       .  A
C541        N548   1.432       .  S
C542        C543   1.400       .  A
C542        H547   1.084       .  S
C543        C544   1.418       .  A
C544        N545   1.439       .  S
N545        H549   1.045       .  S
N545        H550   1.042       .  S
N548        H551   1.046       .  S
N548        H552   1.042       .  S
C553        C554   1.404       .  A
C553        C558   1.406       .  A
C553        H560   1.083       .  S
C554        C555   1.413       .  A
C555        C556   1.404       .  A
C555        N562   1.438       .  S
C556        C557   1.407       .  A
C556        H561   1.083       .  S
C557        C558   1.418       .  A
C558        N559   1.438       .  S
N559        H563   1.046       .  S
N559        H564   1.046       .  S
N562        H565   1.046       .  S
N562        H566   1.046       .  S
C567        C568   1.400       .  A
C567        C572   1.402       .  A
C567        H574   1.084       .  S
C568        C569   1.410       .  A
C569        C570   1.405       .  A
C569        N576   1.438       .  S
C570        C571   1.405       .  A
C570        H575   1.084       .  S
C571        C572   1.422       .  A
C572        N573   1.441       .  S
N573        H577   1.046       .  S
N573        H578   1.041       .  S
N576        H579   1.046       .  S
N576        H580   1.046       .  S
C581        C582   1.402       .  A
C581        C586   1.397       .  A
C581        H588   1.084       .  S
C582        C583   1.418       .  A
C583        C584   1.401       .  A
C583        N590   1.438       .  S
C584        C585   1.403       .  A
C584        H589   1.084       .  S
C585        C586   1.416       .  A
C586        N587   1.433       .  S
N587        H591   1.044       .  S
N587        H592   1.046       .  S
N590        H593   1.042       .  S
N590        H594   1.045       .  S
C595        C596   1.402       .  A
C595        C600   1.405       .  A
C595        H602   1.084       .  S
C596        C597   1.418       .  A
C597        C598   1.400       .  A
C597        N604   1.438       .  S
C598        C599   1.398       .  A
C598        H603   1.084       .  S
C599        C600   1.408       .  A
C600        N601   1.438       .  S
N601        H605   1.046       .  S
N601        H606   1.046       .  S
N604        H607   1.043       .  S
N604        H608   1.045       .  S
C609        C610   1.402       .  A
C609        C614   1.405       .  A
C609        H616   1.084       .  S
C610        C611   1.408       .  A
C611        C612   1.405       .  A
C611        N618   1.438       .  S
C612        C613   1.403       .  A
C612        H617   1.084       .  S
C613        C614   1.409       .  A
C614        N615   1.438       .  S
N615        H619   1.046       .  S
N615        H620   1.045       .  S
N618        H621   1.045       .  S
N618        H622   1.046       .  S
C623        C624   1.404       .  A
C623        C628   1.406       .  A
C623        H630   1.083       .  S
C624        C625   1.413       .  A
C625        C626   1.404       .  A
C625        N632   1.438       .  S
C626        C627   1.406       .  A
C626        H631   1.083       .  S
C627        C628   1.417       .  A
C628        N629   1.438       .  S
N629        H633   1.046       .  S
N629        H634   1.046       .  S
N632        H635   1.046       .  S
N632        H636   1.046       .  S
C637        C638   1.404       .  A
C637        C642   1.401       .  A
C637        H644   1.084       .  S
C638        C639   1.414       .  A
C639        C640   1.404       .  A
C639        N646   1.437       .  S
C640        C641   1.401       .  A
C640        H645   1.084       .  S
C641        C642   1.418       .  A
C642        N643   1.438       .  S
N643        H647   1.045       .  S
N643        H648   1.042       .  S
N646        H649   1.046       .  S
N646        H650   1.046       .  S
C651        C652   1.402       .  A
C651        C656   1.402       .  A
C651        H658   1.084       .  S
C652        C653   1.411       .  A
C653        C654   1.404       .  A
C653        N660   1.438       .  S
C654        C655   1.400       .  A
C654        H659   1.084       .  S
C655        C656   1.418       .  A
C656        N657   1.440       .  S
N657        H661   1.046       .  S
N657        H662   1.043       .  S
N660        H663   1.046       .  S
N660        H664   1.046       .  S
