geometry optimzed in LAMMPS
_audit_creation_date              2020-12-01 
_audit_creation_method            'lammps2cif' 
_symmetry_space_group_name_H-M    'P1' 
_symmetry_Int_Tables_number       1 
_symmetry_cell_setting            triclinic 
loop_ 
_symmetry_equiv_pos_as_xyz 
  x,y,z 
_cell_length_a                    27.46626375 
_cell_length_b                    30.08277340778569 
_cell_length_c                    30.921771227217523 
_cell_angle_alpha                 90.17523810377438 
_cell_angle_beta                  97.89141669765546 
_cell_angle_gamma                 90.17579523343213 
loop_ 
_atom_site_label 
_atom_site_type_symbol 
_atom_site_fract_x 
_atom_site_fract_y 
_atom_site_fract_z 
_atom_site_charge 
C1          C  0.29655462  0.41496380  0.88001660     0.85800
C2          C  0.26169602  0.43985619  0.90708306    -0.54400
C3          C  0.26263829  0.42441699  0.94900834     0.08800
C4          C  0.29908861  0.38575033  0.95972363     0.19700
C5          C  0.34735995  0.41871595  0.90777877    -0.55100
C6          C  0.34841038  0.40358568  0.94934426     0.08900
C7          C  0.28183965  0.36594574  0.88300817    -0.54700
C8          C  0.28356374  0.35053152  0.92451213     0.09400
H9          H  0.23890706  0.46727757  0.89459484     0.14000
H10         H  0.30159567  0.37196610  0.99305442    -0.00300
H11         H  0.37974532  0.43181269  0.89553907     0.14300
H12         H  0.27236113  0.34478569  0.85453117     0.14000
C13         C  0.44665435  0.41195724  0.05007899     0.85800
C14         C  0.48333399  0.43323968  0.02272900    -0.54400
C15         C  0.48075953  0.41685575  0.98098888     0.08800
C16         C  0.44096886  0.38036543  0.97085342     0.19700
C17         C  0.39620174  0.41890381  0.02231449    -0.55100
C18         C  0.39356950  0.40232345  0.98099074     0.08900
C19         C  0.45601448  0.36200839  0.04790485    -0.54700
C20         C  0.45229288  0.34492877  0.00671073     0.09400
H21         H  0.50805325  0.45960343  0.03554210     0.14000
H22         H  0.43666316  0.36628336  0.93747619    -0.00300
H23         H  0.36542793  0.43577441  0.03365761     0.14300
H24         H  0.46396609  0.34176058  0.07702665     0.14000
O25         O  0.26771157  0.92800785  0.89060632    -0.73600
O26         O  0.28549869  0.93210480  0.02173444    -0.74600
O27         O  0.27112044  0.86332488  0.95782125    -0.63200
O28         O  0.28216325  0.99640967  0.95422460    -0.71600
O29         O  0.20158018  0.00224162  0.95342730    -0.71200
O30         O  0.19044856  0.86933171  0.95628684    -0.62400
O31         O  0.20472237  0.93719560  0.02002981    -0.74900
O32         O  0.18708579  0.93412063  0.88913292    -0.73700
Cu33       Cu  0.27944589  0.92975327  0.95614136     1.04600
Cu34       Cu  0.19317823  0.93591214  0.95463657     1.04300
C35         C  0.22462513  0.93071975  0.86907472     0.92600
C36         C  0.24777834  0.93507462  0.04163382     0.91700
C37         C  0.22894097  0.84527783  0.95792089     0.83900
C38         C  0.24367953  0.02039522  0.95320761     0.90200
O39         O  0.43176544  0.92449983  0.89070695    -0.73600
O40         O  0.45046023  0.91824552  0.02199537    -0.74600
O41         O  0.43403042  0.98797719  0.96025709    -0.63200
O42         O  0.44800170  0.85500662  0.95343921    -0.71600
O43         O  0.02845851  0.86320112  0.95469463    -0.71200
O44         O  0.01445497  0.99552974  0.96079539    -0.62400
O45         O  0.03087960  0.92626822  0.02300990    -0.74900
O46         O  0.01244774  0.93165277  0.89281683    -0.73700
Cu47       Cu  0.43815241  0.92124854  0.95650265     1.04600
Cu48       Cu  0.02424342  0.92953503  0.95785526     1.04300
C49         C  0.46963300  0.92808298  0.87102546     0.92600
C50         C  0.49374077  0.92103369  0.04321680     0.91700
C51         C  0.47219562  0.01274262  0.96204061     0.83900
C52         C  0.49060600  0.83813157  0.95299480     0.90200
C53         C  0.19667516  0.44961399  0.04962204     0.85800
C54         C  0.20508755  0.49963685  0.04551371    -0.54400
C55         C  0.20170114  0.51477717  0.00373377     0.08800
C56         C  0.19061465  0.47783839  0.96917958     0.19700
C57         C  0.14593292  0.44140728  0.02216641    -0.55100
C58         C  0.14326804  0.45597225  0.98004434     0.08900
C59         C  0.23361682  0.42795999  0.02301546    -0.54700
C60         C  0.23088837  0.44242417  0.98070256     0.09400
H61         H  0.21293094  0.52133363  0.07377280     0.14000
H62         H  0.18637928  0.49057451  0.93536075    -0.00300
H63         H  0.11459900  0.42611175  0.03403003     0.14300
H64         H  0.25955881  0.40345305  0.03752447     0.14000
C65         C  0.04559159  0.43929848  0.87918460     0.85800
C66         C  0.09670835  0.43627235  0.90715300    -0.54400
C67         C  0.09793335  0.45356530  0.94820621     0.08800
C68         C  0.04886453  0.47295494  0.95754409     0.19700
C69         C  0.01041506  0.41681265  0.90709675    -0.55100
C70         C  0.01171827  0.43416514  0.94835857     0.08900
C71         C  0.03291393  0.48877141  0.88005500    -0.54700
C72         C  0.03492203  0.50684818  0.92067798     0.09400
H73         H  0.12931756  0.42226146  0.89647306     0.14000
H74         H  0.05186843  0.48821027  0.99036739    -0.00300
H75         H  0.48699444  0.38941044  0.89448363     0.14300
H76         H  0.02338241  0.50796388  0.85042230     0.14000
C77         C  0.03488491  0.89317857  0.37291037     0.85800
C78         C  0.99920503  0.91783846  0.39897684    -0.54400
C79         C  0.00354288  0.90710161  0.44238020     0.08800
C80         C  0.04388708  0.87218176  0.45557351     0.19700
C81         C  0.08608738  0.90295347  0.39807941    -0.55100
C82         C  0.09073541  0.89195657  0.44124124     0.08900
C83         C  0.02562686  0.84396708  0.38136490    -0.54700
C84         C  0.03061640  0.83275096  0.42440436     0.09400
H85         H  0.47287459  0.94158946  0.38449450     0.14000
H86         H  0.04867853  0.86231396  0.49033588    -0.00300
H87         H  0.11612731  0.91683865  0.38292751     0.14300
H88         H  0.01707019  0.81975603  0.35525741     0.14000
C89         C  0.19192523  0.90636127  0.53931464     0.85800
C90         C  0.22272585  0.93599727  0.51261902    -0.54400
C91         C  0.22124009  0.92354283  0.46976238     0.08800
C92         C  0.18738768  0.88311127  0.45739433     0.19700
C93         C  0.13984203  0.90809242  0.51368622    -0.55100
C94         C  0.13751597  0.89587714  0.47092344     0.08900
C95         C  0.20984311  0.85894479  0.53229814    -0.54700
C96         C  0.20714800  0.84656485  0.48958312     0.09400
H97         H  0.24308122  0.96467122  0.52602063     0.14000
H98         H  0.18478783  0.87200840  0.42301650    -0.00300
H99         H  0.10757701  0.91760996  0.52824046     0.14300
H100        H  0.22203363  0.83653362  0.55906670     0.14000
O101        O  0.21170133  0.42349283  0.40011899    -0.73600
O102        O  0.23001620  0.43581958  0.53066995    -0.74600
O103        O  0.21573730  0.49571192  0.45934056    -0.63200
O104        O  0.22597707  0.36329775  0.47145827    -0.67200
O105        O  0.30674212  0.36788817  0.47275060    -0.71200
O106        O  0.29633298  0.50073334  0.45974705    -0.62400
O107        O  0.31070435  0.44072222  0.53169842    -0.74900
O108        O  0.29235816  0.42746621  0.40049218    -0.73700
Cu109      Cu  0.21813681  0.42941686  0.46538884     1.04600
Cu110      Cu  0.30438825  0.43437102  0.46617519     1.04300
C111        C  0.24899268  0.42373928  0.37952170     0.92600
C112        C  0.27310907  0.44001041  0.55195220     0.91700
C113        C  0.25421435  0.51925920  0.45755566     0.83900
C114        C  0.26797940  0.34457132  0.47415666     0.90200
O115        O  0.46247685  0.48626890  0.47074246    -0.73600
O116        O  0.45218225  0.35373200  0.45662923    -0.74600
O117        O  0.46517853  0.41320388  0.52916048    -0.63200
O118        O  0.44901857  0.42690801  0.39877922    -0.71600
O119        O  0.02971323  0.42074925  0.40038389    -0.71200
O120        O  0.04618413  0.41151474  0.53123173    -0.62400
O121        O  0.03331572  0.35001335  0.46058216    -0.74900
O122        O  0.04311161  0.48228174  0.47094911    -0.73700
Cu123      Cu  0.45437961  0.42015692  0.46383331     1.04600
Cu124      Cu  0.04087100  0.41598340  0.46585982     1.04300
C125        C  0.00439721  0.50529703  0.47252996     0.92600
C126        C  0.49133819  0.33090017  0.45641560     0.91700
C127        C  0.00817775  0.41083052  0.55091358     0.83900
C128        C  0.48682370  0.42547061  0.37891651     0.90200
C129        C  0.28803027  0.95719863  0.37203749     0.85800
C130        C  0.28302839  0.00700131  0.38110410    -0.54400
C131        C  0.28662841  0.01794495  0.42424758     0.08800
C132        C  0.29476366  0.97763740  0.45478102     0.19700
C133        C  0.33754873  0.94448852  0.39892149    -0.55100
C134        C  0.34076405  0.95519468  0.44200732     0.08900
C135        C  0.24896430  0.93469299  0.39586714    -0.54700
C136        C  0.25235298  0.94493006  0.43946715     0.09400
H137        H  0.27748322  0.03160545  0.35527218     0.14000
H138        H  0.29951781  0.98717990  0.48966440    -0.00300
H139        H  0.36840720  0.92965240  0.38608745     0.14300
H140        H  0.22161489  0.91240053  0.37902794     0.14000
C141        C  0.43979426  0.94288447  0.54163885     0.85800
C142        C  0.38825403  0.93856069  0.51482021    -0.54400
C143        C  0.38681771  0.95089042  0.47232970     0.08800
C144        C  0.43633215  0.96638731  0.46022702     0.19700
C145        C  0.47390969  0.91574930  0.51609520    -0.55100
C146        C  0.47247747  0.92791118  0.47319887     0.08900
C147        C  0.45400755  0.99163378  0.53513006    -0.54700
C148        C  0.45249553  0.00397164  0.49261107     0.09400
H149        H  0.35507913  0.92895675  0.52770767     0.14000
H150        H  0.43366928  0.97765572  0.42610841    -0.00300
H151        H  0.49707737  0.88956108  0.53142145     0.14300
H152        H  0.46310249  0.01473580  0.56210939     0.14000
C153        C  0.50573068  0.12011659  0.49528572    -0.11500
C154        C  0.47788679  0.13988697  0.45889293     0.05600
C155        C  0.44358914  0.11368107  0.43197564    -0.10300
C156        C  0.43620076  0.06911652  0.44218327    -0.11900
C157        C  0.46296050  0.04998394  0.47946571    -0.01700
C158        C  0.49848404  0.07569705  0.50533607    -0.10800
C159        C  0.48225603  0.18841162  0.45165419     0.05700
H160        H  0.42186531  0.12781764  0.40349057     0.07600
H161        H  0.40824959  0.05026255  0.42179362     0.11100
H162        H  0.52026539  0.06166712  0.53384771     0.11300
H163        H  0.53191599  0.13941069  0.51712302     0.07600
C164        C  0.44008441  0.21425839  0.43953501    -0.11500
C165        C  0.44301877  0.26063710  0.44010046    -0.10800
C166        C  0.48839600  0.28203307  0.45208374    -0.01700
C167        C  0.53105823  0.25619079  0.46120046    -0.11900
C168        C  0.52800953  0.20989273  0.46104357    -0.10300
H169        H  0.40446271  0.19873457  0.43161353     0.07600
H170        H  0.40964421  0.27970572  0.43205828     0.11300
H171        H  0.56669839  0.27171395  0.46992254     0.11000
H172        H  0.56139336  0.19090682  0.46937095     0.07600
C173        C  0.26098333  0.12156961  0.48793340    -0.11500
C174        C  0.28322718  0.15453517  0.46513868     0.05600
C175        C  0.30756231  0.14224425  0.43000542    -0.10300
C176        C  0.30899725  0.09790882  0.41721054    -0.11900
C177        C  0.28643036  0.06473664  0.43950873    -0.01700
C178        C  0.26312039  0.07679636  0.47551692    -0.10800
C179        C  0.27896155  0.20219372  0.47539633     0.05700
H180        H  0.32414679  0.16724473  0.41151881     0.07600
H181        H  0.32778126  0.08962083  0.38970132     0.11100
H182        H  0.24526183  0.05186461  0.49311114     0.11300
H183        H  0.24178170  0.13054552  0.51501003     0.07600
C184        C  0.23269336  0.22254602  0.47065373    -0.11500
C185        C  0.22901640  0.26889710  0.47190694    -0.10800
C186        C  0.27161383  0.29558525  0.47786866    -0.01700
C187        C  0.31780143  0.27487328  0.48529875    -0.11900
C188        C  0.32137230  0.22858208  0.48413303    -0.10300
H189        H  0.19954260  0.20271548  0.46364768     0.07600
H190        H  0.19288117  0.28383210  0.46638511     0.11300
H191        H  0.35125091  0.29444516  0.49082663     0.11000
H192        H  0.35728808  0.21329084  0.48883442     0.07600
C193        C  0.28708810  0.64184945  0.45466409    -0.11500
C194        C  0.24058024  0.66189620  0.45236507     0.05600
C195        C  0.19870444  0.63450845  0.44876844    -0.10300
C196        C  0.20317527  0.58829495  0.44957977    -0.11900
C197        C  0.24970757  0.56822140  0.45359953    -0.01700
C198        C  0.29160323  0.59548719  0.45516460    -0.10800
C199        C  0.23555402  0.71081429  0.45744067     0.05700
H200        H  0.16248149  0.64885079  0.44698539     0.07600
H201        H  0.17009937  0.56831938  0.44795526     0.11100
H202        H  0.32796401  0.58106268  0.45782360     0.11300
H203        H  0.32005728  0.66201793  0.45673444     0.07600
C204        C  0.26837700  0.73414947  0.48841178    -0.11500
C205        C  0.26004647  0.77870999  0.49779280    -0.10800
C206        C  0.21898775  0.80100320  0.47617490    -0.01700
C207        C  0.18747604  0.77856423  0.44366810    -0.11900
C208        C  0.19555432  0.73383384  0.43449386    -0.10300
H209        H  0.29922106  0.71742182  0.50699596     0.07600
H210        H  0.28512330  0.79552973  0.52269687     0.11300
H211        H  0.15536489  0.79498896  0.42673523     0.11000
H212        H  0.16986266  0.71699510  0.41011168     0.07600
C213        C  0.46860804  0.62656467  0.46812327    -0.11500
C214        C  0.01459521  0.64775838  0.47032902     0.05600
C215        C  0.05735367  0.62181932  0.47781796    -0.10300
C216        C  0.05413330  0.57552953  0.47997293    -0.11900
C217        C  0.00803523  0.55428310  0.47513105    -0.01700
C218        C  0.46535433  0.58035636  0.47045948    -0.10800
C219        C  0.01762011  0.69605122  0.46106957     0.05700
H220        H  0.09324588  0.63708866  0.48012763     0.07600
H221        H  0.08774873  0.55634916  0.48419946     0.11100
H222        H  0.42929936  0.56502882  0.46716998     0.11300
H223        H  0.43494873  0.64566515  0.46357257     0.07600
C224        C  0.98375153  0.71505721  0.42814261    -0.11500
C225        C  0.98744479  0.75965820  0.41714739    -0.10800
C226        C  0.02510648  0.78640466  0.43871714    -0.01700
C227        C  0.05870941  0.76796606  0.47209259    -0.11900
C228        C  0.05518256  0.72303194  0.48304594    -0.10300
H229        H  0.45508574  0.69513661  0.40985902     0.07600
H230        H  0.46100317  0.77321009  0.39138998     0.11300
H231        H  0.08847278  0.78791736  0.48876306     0.11000
H232        H  0.08183788  0.70943005  0.50858286     0.07600
C233        C  0.48824900  0.42131836  0.76091740    -0.11500
C234        C  0.02833177  0.40795280  0.74026357     0.05600
C235        C  0.07328183  0.39900596  0.76647375    -0.10300
C236        C  0.07901606  0.40627367  0.81166879    -0.11900
C237        C  0.03971214  0.42253956  0.83196651    -0.01700
C238        C  0.99374535  0.42794749  0.80604592    -0.10800
C239        C  0.02392642  0.40595165  0.69159081     0.05700
H240        H  0.10456373  0.38725304  0.75194650     0.07600
H241        H  0.11481251  0.40036216  0.82974086     0.11100
H242        H  0.46252980  0.44004182  0.82052774     0.11300
H243        H  0.45307413  0.42887697  0.74211356     0.07600
C244        C  0.97929582  0.39377926  0.66620858    -0.11500
C245        C  0.47427603  0.39510923  0.62058293    -0.10800
C246        C  0.01396144  0.40793643  0.59915714    -0.01700
C247        C  0.05888857  0.41911500  0.62430326    -0.11900
C248        C  0.06371177  0.41846778  0.66992362    -0.10300
H249        H  0.44805917  0.38325257  0.68152579     0.07600
H250        H  0.43928703  0.38599579  0.60205443     0.11300
H251        H  0.09001151  0.42954531  0.60872718     0.11000
H252        H  0.09830933  0.42905024  0.68813828     0.07600
C253        C  0.25789456  0.43925552  0.16773247    -0.11500
C254        C  0.22051194  0.42177042  0.18957248     0.05600
C255        C  0.17576117  0.40933730  0.16442084    -0.10300
C256        C  0.16772981  0.41639172  0.11916875    -0.11900
C257        C  0.20453545  0.43576309  0.09768482    -0.01700
C258        C  0.25020056  0.44559396  0.12261366    -0.10800
C259        C  0.22746300  0.41892645  0.23839278     0.05700
H260        H  0.14647202  0.39458770  0.17972010     0.07600
H261        H  0.13231226  0.40729954  0.10185087     0.11100
H262        H  0.27953545  0.46024750  0.10722609     0.11300
H263        H  0.29263492  0.44992595  0.18556865     0.07600
C264        C  0.27437181  0.41188033  0.26223234    -0.11500
C265        C  0.28139659  0.41305215  0.30796263    -0.10800
C266        C  0.24159313  0.42052117  0.33112335    -0.01700
C267        C  0.19452700  0.42614760  0.30750576    -0.11900
C268        C  0.18760041  0.42568996  0.26183103    -0.10300
H269        H  0.30591183  0.40559048  0.24565721     0.07600
H270        H  0.31807295  0.40821676  0.32517485     0.11300
H271        H  0.16306899  0.43216878  0.32431640     0.11000
H272        H  0.15110444  0.43211889  0.24502414     0.07600
C273        C  0.04509654  0.72585625  0.93342085    -0.11500
C274        C  0.00835543  0.69643044  0.94331081     0.05600
C275        C  0.46558517  0.71408176  0.95693019    -0.10300
C276        C  0.45954155  0.76016853  0.96001847    -0.11900
C277        C  0.99644754  0.78940017  0.95010718    -0.01700
C278        C  0.03934476  0.77170384  0.93700005    -0.10800
C279        C  0.01447296  0.64769413  0.93802554     0.05700
H280        H  0.43634070  0.69232140  0.96424200     0.07600
H281        H  0.42607492  0.77291249  0.97023934     0.11100
H282        H  0.06825681  0.79336347  0.92879953     0.11300
H283        H  0.07852595  0.71341177  0.92294688     0.07600
C284        C  0.03582112  0.63134373  0.90246864    -0.11500
C285        C  0.04279065  0.58590627  0.89737255    -0.10800
C286        C  0.02803109  0.55530452  0.92736453    -0.01700
C287        C  0.00668626  0.57142428  0.96305223    -0.11900
C288        C  0.99982667  0.61723353  0.96827989    -0.10300
H289        H  0.04692197  0.65371397  0.87822512     0.07600
H290        H  0.06034018  0.57487931  0.86997938     0.11300
H291        H  0.99468781  0.54867200  0.98654274     0.11000
H292        H  0.98363925  0.62885046  0.99624164     0.07600
C293        C  0.41538925  0.93187512  0.75138266    -0.11500
C294        C  0.45705403  0.92324053  0.73069708     0.05600
C295        C  0.00235453  0.91596950  0.75685007    -0.10300
C296        C  0.00620283  0.91819348  0.80222484    -0.11900
C297        C  0.46472043  0.92689893  0.82281652    -0.01700
C298        C  0.41912901  0.93333003  0.79699054    -0.10800
C299        C  0.45381550  0.92338763  0.68218545     0.05700
H300        H  0.03501256  0.90815851  0.74237078     0.07600
H301        H  0.04174665  0.91241527  0.82124245     0.11100
H302        H  0.38657915  0.94019408  0.81200767     0.11300
H303        H  0.38005121  0.93846139  0.73240565     0.07600
C304        C  0.41100502  0.90888902  0.65562668    -0.11500
C305        C  0.40653101  0.91279097  0.61018747    -0.10800
C306        C  0.44495158  0.93126474  0.59006994    -0.01700
C307        C  0.48922501  0.94214084  0.61659218    -0.11900
C308        C  0.49329150  0.93914590  0.66193192    -0.10300
H309        H  0.38060119  0.89485465  0.66994245     0.07600
H310        H  0.37267747  0.90147393  0.59157172     0.11300
H311        H  0.51999615  0.95543931  0.60221648     0.11000
H312        H  0.02688235  0.95085801  0.68102345     0.07600
C313        C  0.46730948  0.91211503  0.15984812    -0.11500
C314        C  0.01489308  0.91258651  0.18343268     0.05600
C315        C  0.05549247  0.91539174  0.16043355    -0.10300
C316        C  0.04862211  0.91812695  0.11489957    -0.11900
C317        C  0.00099719  0.91802087  0.09139517    -0.01700
C318        C  0.46044046  0.91482191  0.11435891    -0.10800
C319        C  0.02188140  0.91026949  0.23183652     0.05700
H320        H  0.09255556  0.91622036  0.17768082     0.07600
H321        H  0.08065267  0.92044389  0.09813807     0.11100
H322        H  0.42331000  0.91441383  0.09720651     0.11300
H323        H  0.43527912  0.90916818  0.17654319     0.07600
C324        C  0.48997767  0.93316366  0.25574157    -0.11500
C325        C  0.49446582  0.92934348  0.30105758    -0.10800
C326        C  0.03125599  0.90241880  0.32398198    -0.01700
C327        C  0.06415384  0.88065548  0.29986993    -0.11900
C328        C  0.05958147  0.88450991  0.25446086    -0.10300
H329        H  0.46112153  0.95398541  0.23931016     0.07600
H330        H  0.46783001  0.94699187  0.31693456     0.11300
H331        H  0.09275469  0.85952400  0.31625426     0.11000
H332        H  0.08461494  0.86616333  0.23697011     0.07600
C333        C  0.23074879  0.62342477  0.95001889    -0.11500
C334        C  0.21264076  0.65479348  0.97764324     0.05600
C335        C  0.19055014  0.63958362  0.01318251    -0.10300
C336        C  0.18652899  0.59428926  0.02100714    -0.11900
C337        C  0.20492954  0.56284113  0.99378045    -0.01700
C338        C  0.22670259  0.57776044  0.95792279    -0.10800
C339        C  0.21638459  0.70331687  0.96996375     0.05700
H340        H  0.17679585  0.66278966  0.03541278     0.07600
H341        H  0.16862415  0.58394019  0.04840957     0.11100
H342        H  0.24136825  0.55423795  0.93653106     0.11300
H343        H  0.24762217  0.63419654  0.92216116     0.07600
C344        C  0.25956849  0.72224602  0.95828119    -0.11500
C345        C  0.26370462  0.76839796  0.95399340    -0.10800
C346        C  0.22449412  0.79637681  0.96076474    -0.01700
C347        C  0.18107124  0.77729594  0.97158174    -0.11900
C348        C  0.17717749  0.73139745  0.97632827    -0.10300
H349        H  0.29063077  0.70151272  0.95371764     0.07600
H350        H  0.29767350  0.78218611  0.94567116     0.11300
H351        H  0.15038142  0.79794241  0.97737349     0.11000
H352        H  0.14345293  0.71784951  0.98533557     0.07600
C353        C  0.21810769  0.92995722  0.15749396    -0.11500
C354        C  0.26424218  0.93797353  0.18215840     0.05600
C355        C  0.30516023  0.94468615  0.16000687    -0.10300
C356        C  0.29999116  0.94338440  0.11439512    -0.11900
C357        C  0.25370930  0.93591045  0.08990224    -0.01700
C358        C  0.21285831  0.92922164  0.11194437    -0.10800
C359        C  0.26949050  0.93993516  0.23068833     0.05700
H360        H  0.34110843  0.95172483  0.17783247     0.07600
H361        H  0.33210398  0.94889009  0.09830456     0.11100
H362        H  0.17679098  0.92295271  0.09397818     0.11300
H363        H  0.18600584  0.92375633  0.17335642     0.07600
C364        C  0.23209566  0.95812712  0.25200083    -0.11500
C365        C  0.23789223  0.96153129  0.29745798    -0.10800
C366        C  0.28153709  0.94764693  0.32303231    -0.01700
C367        C  0.31822828  0.92793519  0.30159816    -0.11900
C368        C  0.31220402  0.92417891  0.25613760    -0.10300
H369        H  0.19881173  0.97102210  0.23356576     0.07600
H370        H  0.20876834  0.97658462  0.31276186     0.11300
H371        H  0.35208851  0.91555517  0.31897651     0.11000
H372        H  0.34120954  0.90885041  0.24092509     0.07600
C373        C  0.23251473  0.94948424  0.65645570    -0.11500
C374        C  0.20061229  0.92600056  0.67998538     0.05600
C375        C  0.16457557  0.89838628  0.65710611    -0.10300
C376        C  0.16147041  0.89340881  0.61185614    -0.11900
C377        C  0.19364901  0.91651281  0.58798927    -0.01700
C378        C  0.22921950  0.94482504  0.61114330    -0.10800
C379        C  0.20655049  0.92848516  0.72841119     0.05700
H380        H  0.13993056  0.87929619  0.67439807     0.07600
H381        H  0.13445362  0.87052059  0.59545994     0.11100
H382        H  0.25615342  0.96226944  0.59532327     0.11300
H383        H  0.26060774  0.97111810  0.67324263     0.07600
C384        C  0.25364886  0.92696939  0.75276698    -0.11500
C385        C  0.25943667  0.92768524  0.79836149    -0.10800
C386        C  0.21827657  0.93009346  0.82070362    -0.01700
C387        C  0.17114338  0.93199418  0.79635825    -0.11900
C388        C  0.16534851  0.93108543  0.75069456    -0.10300
H389        H  0.28604563  0.92427333  0.73654993     0.07600
H390        H  0.29620724  0.92609966  0.81611546     0.11300
H391        H  0.13867763  0.93403828  0.81256094     0.11000
H392        H  0.12863818  0.93268624  0.73277254     0.07600
C393        C  0.50297595  0.43938574  0.16708178    -0.11500
C394        C  0.46247064  0.43452952  0.18999129     0.05600
C395        C  0.41582823  0.42716545  0.16607041    -0.10300
C396        C  0.41012795  0.42306365  0.12064508    -0.11900
C397        C  0.45076575  0.42700061  0.09755954    -0.01700
C398        C  0.49735509  0.43493821  0.12168224    -0.10800
C399        C  0.46929833  0.43384992  0.23863158     0.05700
H400        H  0.38398367  0.42196053  0.18256036     0.07600
H401        H  0.37413065  0.41416436  0.10413126     0.11100
H402        H  0.53009878  0.43570848  0.10584071     0.11300
H403        H  0.03947100  0.44533443  0.18431767     0.07600
C404        C  0.51161878  0.41467155  0.26200133    -0.11500
C405        C  0.51752348  0.41256638  0.30753084    -0.10800
C406        C  0.48091581  0.42887737  0.33080766    -0.01700
C407        C  0.43847642  0.44784875  0.30767568    -0.11900
C408        C  0.43289506  0.45063628  0.26211292    -0.10300
H409        H  0.53984775  0.40030515  0.24513291     0.07600
H410        H  0.55034581  0.39727446  0.32448238     0.11300
H411        H  0.40975086  0.46088155  0.32483687     0.11000
H412        H  0.40010229  0.46608101  0.24533318     0.07600
C413        C  0.50204994  0.13585276  0.96178446    -0.11500
C414        C  0.46074757  0.15463148  0.97699391     0.05600
C415        C  0.42306042  0.12620760  0.98690871    -0.10300
C416        C  0.42637790  0.08021961  0.98135647    -0.11900
C417        C  0.46773614  0.06153580  0.96628198    -0.01700
C418        C  0.50561340  0.08981884  0.95670322    -0.10800
C419        C  0.45768665  0.20349317  0.98372752     0.05700
H420        H  0.39088328  0.13951517  0.99892966     0.07600
H421        H  0.39704673  0.05918432  0.98976158     0.11100
H422        H  0.03811958  0.07634615  0.94533131     0.11300
H423        H  0.53218661  0.15666878  0.95472250     0.07600
C424        C  0.43862127  0.22037779  0.02028278    -0.11500
C425        C  0.43663772  0.26609391  0.02737871    -0.10800
C426        C  0.45403034  0.29627242  0.99830692    -0.01700
C427        C  0.47246847  0.27957249  0.96138109    -0.11900
C428        C  0.47437451  0.23363525  0.95420098    -0.10300
H429        H  0.42580540  0.19822797  0.04387422     0.07600
H430        H  0.42089388  0.27772368  0.05555784     0.11300
H431        H  0.48621121  0.30190427  0.93844106     0.11000
H432        H  0.48870864  0.22170272  0.92540404     0.07600
C433        C  0.26280245  0.46487613  0.76491100    -0.11500
C434        C  0.29490886  0.44161854  0.74126956     0.05600
C435        C  0.32973286  0.41309702  0.76405749    -0.10300
C436        C  0.33088630  0.40647775  0.80885821    -0.11900
C437        C  0.29742933  0.42819222  0.83243873    -0.01700
C438        C  0.26394067  0.45829448  0.80985220    -0.10800
C439        C  0.28992881  0.44457555  0.69274958     0.05700
H440        H  0.35472127  0.39422354  0.74698475     0.07600
H441        H  0.35700838  0.38291142  0.82501582     0.11100
H442        H  0.23722221  0.47585613  0.82579262     0.11300
H443        H  0.23604387  0.48769723  0.74847769     0.07600
C444        C  0.24308702  0.44647396  0.66789502    -0.11500
C445        C  0.23782603  0.44584744  0.62230454    -0.10800
C446        C  0.27924472  0.44327863  0.60029642    -0.01700
C447        C  0.32619890  0.44236363  0.62501648    -0.11900
C448        C  0.33147824  0.44297564  0.67071511    -0.10300
H449        H  0.21023036  0.44693955  0.68363982     0.07600
H450        H  0.20111670  0.44660286  0.60430229     0.11300
H451        H  0.35887390  0.44043828  0.60908714     0.11000
H452        H  0.36812519  0.44198140  0.68878917     0.07600
C453        C  0.21246194  0.14301476  0.95657586    -0.11500
C454        C  0.25663332  0.16276252  0.94835859     0.05600
C455        C  0.29614439  0.13554897  0.94125640    -0.10300
C456        C  0.29188521  0.08933400  0.94284679    -0.11900
C457        C  0.24796381  0.06939446  0.95158973    -0.01700
C458        C  0.20818334  0.09671442  0.95829074    -0.10800
C459        C  0.26121563  0.21159376  0.94543240     0.05700
H460        H  0.32994961  0.15014808  0.93347138     0.07600
H461        H  0.32271557  0.06918350  0.93650755     0.11100
H462        H  0.17381136  0.08233508  0.96498033     0.11300
H463        H  0.18142228  0.16344897  0.96192208     0.07600
C464        C  0.22646966  0.23582889  0.91752329    -0.11500
C465        C  0.23315893  0.28131629  0.91148185    -0.10800
C466        C  0.27412115  0.30343379  0.93397350    -0.01700
C467        C  0.30777175  0.27967003  0.96333388    -0.11900
C468        C  0.30168844  0.23392585  0.96864615    -0.10300
H469        H  0.19515465  0.21922240  0.89916229     0.07600
H470        H  0.20669687  0.29918960  0.88881544     0.11300
H471        H  0.33974155  0.29614955  0.98074898     0.11000
H472        H  0.32880085  0.21582323  0.99046157     0.07600
C473        C  0.79656108  0.41495880  0.88001451     0.85800
C474        C  0.76170027  0.43984933  0.90708022    -0.54400
C475        C  0.76264079  0.42440873  0.94900486     0.08800
C476        C  0.79909138  0.38574235  0.95972020     0.19700
C477        C  0.84736517  0.41871088  0.90777870    -0.55100
C478        C  0.84841355  0.40357946  0.94934361     0.08900
C479        C  0.78184660  0.36594037  0.88300384    -0.54700
C480        C  0.78356891  0.35052442  0.92450705     0.09400
H481        H  0.73891092  0.46727049  0.89459199     0.14000
H482        H  0.80159694  0.37195706  0.99305050    -0.00300
H483        H  0.87975098  0.43180908  0.89554091     0.14300
H484        H  0.77236986  0.34478132  0.85452588     0.14000
C485        C  0.94665290  0.41195931  0.05008151     0.85800
C486        C  0.98333220  0.43324193  0.02273143    -0.54400
C487        C  0.98076012  0.41685600  0.98099220     0.08800
C488        C  0.94097215  0.38036340  0.97085776     0.19700
C489        C  0.89620027  0.41890213  0.02231518    -0.55100
C490        C  0.89357088  0.40231953  0.98099237     0.08900
C491        C  0.95601593  0.36201064  0.04791034    -0.54700
C492        C  0.95229690  0.34492926  0.00671714     0.09400
H493        H  0.00805051  0.45960632  0.03554509     0.14000
H494        H  0.93666879  0.36627921  0.93748138    -0.00300
H495        H  0.86542491  0.43577325  0.03365476     0.14300
H496        H  0.96396650  0.34176393  0.07703299     0.14000
O497        O  0.76772334  0.92799797  0.89060637    -0.73600
O498        O  0.78551195  0.93210019  0.02173494    -0.74600
O499        O  0.77113652  0.86331749  0.95782414    -0.63200
O500        O  0.78217328  0.99640237  0.95422167    -0.71600
O501        O  0.70159015  0.00223245  0.95342527    -0.71200
O502        O  0.69046445  0.86932214  0.95628956    -0.62400
O503        O  0.70473538  0.93718821  0.02003018    -0.74900
O504        O  0.68709747  0.93410869  0.88913388    -0.73700
Cu505      Cu  0.77945875  0.92974608  0.95614156     1.04600
Cu506      Cu  0.69319092  0.93590255  0.95463719     1.04300
C507        C  0.72463644  0.93070818  0.86907525     0.92600
C508        C  0.74779139  0.93506906  0.04163425     0.91700
C509        C  0.72895772  0.84526930  0.95792406     0.83900
C510        C  0.74368875  0.02038697  0.95320367     0.90200
O511        O  0.93175788  0.92450584  0.89070604    -0.73600
O512        O  0.95044867  0.91824374  0.02199442    -0.74600
O513        O  0.93402276  0.98797913  0.96025957    -0.63200
O514        O  0.94798938  0.85500840  0.95343492    -0.71600
O515        O  0.52847032  0.86320114  0.95469655    -0.71200
O516        O  0.51446210  0.99553014  0.96079096    -0.62400
O517        O  0.53089077  0.92627174  0.02300963    -0.74900
O518        O  0.51245470  0.93164923  0.89281520    -0.73700
Cu519      Cu  0.93814250  0.92125056  0.95650160     1.04600
Cu520      Cu  0.52425277  0.92953522  0.95785413     1.04300
C521        C  0.96962649  0.92808913  0.87102591     0.92600
C522        C  0.99372915  0.92103003  0.04321635     0.91700
C523        C  0.97218908  0.01274336  0.96204514     0.83900
C524        C  0.99059336  0.83813241  0.95299123     0.90200
C525        C  0.69667827  0.44960699  0.04961892     0.85800
C526        C  0.70509197  0.49962946  0.04550987    -0.54400
C527        C  0.70170576  0.51476919  0.00372987     0.08800
C528        C  0.69061747  0.47783042  0.96917606     0.19700
C529        C  0.64593545  0.44140110  0.02216397    -0.55100
C530        C  0.64327037  0.45596553  0.98004159     0.08900
C531        C  0.73361889  0.42795162  0.02301201    -0.54700
C532        C  0.73089032  0.44241543  0.98069890     0.09400
H533        H  0.71293651  0.52132659  0.07376862     0.14000
H534        H  0.68638216  0.49056653  0.93535720    -0.00300
H535        H  0.61460144  0.42610655  0.03402835     0.14300
H536        H  0.75956074  0.40344460  0.03752109     0.14000
C537        C  0.54559241  0.43929630  0.87918204     0.85800
C538        C  0.59670887  0.43626700  0.90715046    -0.54400
C539        C  0.59793510  0.45355971  0.94820391     0.08800
C540        C  0.54886756  0.47295215  0.95754189     0.19700
C541        C  0.51041399  0.41681261  0.90709356    -0.55100
C542        C  0.51171834  0.43416455  0.94835557     0.08900
C543        C  0.53291879  0.48877013  0.88005302    -0.54700
C544        C  0.53492790  0.50684663  0.92067621     0.09400
H545        H  0.62931734  0.42225521  0.89646987     0.14000
H546        H  0.55187249  0.48820697  0.99036545    -0.00300
H547        H  0.98699730  0.38940912  0.89448731     0.14300
H548        H  0.52338875  0.50796318  0.85042051     0.14000
C549        C  0.53488996  0.89318054  0.37291097     0.85800
C550        C  0.49920970  0.91784033  0.39897715    -0.54400
C551        C  0.50354696  0.90710326  0.44238045     0.08800
C552        C  0.54389170  0.87218363  0.45557412     0.19700
C553        C  0.58609212  0.90295567  0.39808028    -0.55100
C554        C  0.59074017  0.89195856  0.44124201     0.08900
C555        C  0.52563216  0.84396893  0.38136551    -0.54700
C556        C  0.53062183  0.83275269  0.42440494     0.09400
H557        H  0.97286962  0.94158749  0.38449429     0.14000
H558        H  0.54868295  0.86231558  0.49033642    -0.00300
H559        H  0.61613206  0.91684095  0.38292844     0.14300
H560        H  0.51707613  0.81975771  0.35525801     0.14000
C561        C  0.69193211  0.90636184  0.53931398     0.85800
C562        C  0.72273003  0.93600105  0.51261868    -0.54400
C563        C  0.72124339  0.92354878  0.46976128     0.08800
C564        C  0.68739312  0.88311605  0.45739253     0.19700
C565        C  0.63984811  0.90809135  0.51368711    -0.55100
C566        C  0.63752126  0.89587837  0.47092370     0.08900
C567        C  0.70985293  0.85894691  0.53229476    -0.54700
C568        C  0.70715737  0.84656916  0.48957917     0.09400
H569        H  0.74308524  0.96467467  0.52602122     0.14000
H570        H  0.68479266  0.87201487  0.42301419    -0.00300
H571        H  0.60758331  0.91760653  0.52824278     0.14300
H572        H  0.72204632  0.83653512  0.55906215     0.14000
O573        O  0.71171439  0.42350162  0.40011877    -0.73600
O574        O  0.73003221  0.43583124  0.53066942    -0.74600
O575        O  0.71575518  0.49572208  0.45933867    -0.63200
O576        O  0.72598868  0.36330795  0.47145916    -0.67200
O577        O  0.80675367  0.36789540  0.47274972    -0.71200
O578        O  0.79635091  0.50074095  0.45974433    -0.62400
O579        O  0.81072050  0.44073021  0.53169713    -0.74900
O580        O  0.79237108  0.42747264  0.40049034    -0.73700
Cu581      Cu  0.71815152  0.42942725  0.46538849     1.04600
Cu582      Cu  0.80440295  0.43437826  0.46617351     1.04300
C583        C  0.74900507  0.42374649  0.37952064     0.92600
C584        C  0.77312548  0.44002015  0.55195134     0.91700
C585        C  0.75423294  0.51926807  0.45755255     0.83900
C586        C  0.76799013  0.34457999  0.47415686     0.90200
O587        O  0.96246939  0.48626661  0.47074318    -0.73600
O588        O  0.95218543  0.35372968  0.45663083    -0.74600
O589        O  0.96517694  0.41320191  0.52916205    -0.63200
O590        O  0.94901599  0.42690590  0.39878018    -0.71600
O591        O  0.52971544  0.42074923  0.40038257    -0.71200
O592        O  0.54618553  0.41151085  0.53123024    -0.62400
O593        O  0.53331211  0.35001167  0.46057900    -0.74900
O594        O  0.54311888  0.48227982  0.47094937    -0.73700
Cu595      Cu  0.95437742  0.42015446  0.46383451     1.04600
Cu596      Cu  0.54087282  0.41598137  0.46585841     1.04300
C597        C  0.50440594  0.50529725  0.47252991     0.92600
C598        C  0.99134294  0.33089985  0.45641823     0.91700
C599        C  0.50817902  0.41082883  0.55091199     0.83900
C600        C  0.98682139  0.42546957  0.37891778     0.90200
C601        C  0.78803441  0.95720570  0.37203717     0.85800
C602        C  0.78303158  0.00700852  0.38110278    -0.54400
C603        C  0.78663033  0.01795271  0.42424617     0.08800
C604        C  0.79476508  0.97764567  0.45478037     0.19700
C605        C  0.83755207  0.94449608  0.39892262    -0.55100
C606        C  0.84076603  0.95520291  0.44200808     0.08900
C607        C  0.74896783  0.93470014  0.39586621    -0.54700
C608        C  0.75235520  0.94493771  0.43946612     0.09400
H609        H  0.77748715  0.03161226  0.35527051     0.14000
H610        H  0.79951818  0.98718875  0.48966358    -0.00300
H611        H  0.86841071  0.92965845  0.38609019     0.14300
H612        H  0.72161954  0.91240683  0.37902677     0.14000
C613        C  0.93979446  0.94288553  0.54164004     0.85800
C614        C  0.88825357  0.93856657  0.51482150    -0.54400
C615        C  0.88681857  0.95089713  0.47233139     0.08800
C616        C  0.93633443  0.96639005  0.46022902     0.19700
C617        C  0.97390659  0.91574777  0.51609532    -0.55100
C618        C  0.97247548  0.92791073  0.47319942     0.08900
C619        C  0.95401315  0.99163372  0.53513266    -0.54700
C620        C  0.95250186  0.00397247  0.49261400     0.09400
H621        H  0.85507781  0.92896411  0.52770822     0.14000
H622        H  0.93367283  0.97765904  0.42611071    -0.00300
H623        H  0.99707139  0.88955708  0.53142058     0.14300
H624        H  0.96311048  0.01473447  0.56211270     0.14000
C625        C  0.00574051  0.12011642  0.49529043    -0.11500
C626        C  0.97789823  0.13988684  0.45889679     0.05600
C627        C  0.94360121  0.11368136  0.43197852    -0.10300
C628        C  0.93621107  0.06911735  0.44218625    -0.11900
C629        C  0.96296906  0.04998445  0.47946936    -0.01700
C630        C  0.99849240  0.07569701  0.50534063    -0.10800
C631        C  0.98226681  0.18841144  0.45165846     0.05700
H632        H  0.92187867  0.12781801  0.40349283     0.07600
H633        H  0.90825952  0.05026433  0.42179607     0.11100
H634        H  0.02027235  0.06166684  0.53385293     0.11300
H635        H  0.03192525  0.13941037  0.51712835     0.07600
C636        C  0.94009453  0.21425693  0.43953810    -0.11500
C637        C  0.94302725  0.26063551  0.44010286    -0.10800
C638        C  0.98840347  0.28203278  0.45208686    -0.01700
C639        C  0.03106663  0.25619189  0.46120499    -0.11900
C640        C  0.02801953  0.20989369  0.46104882    -0.10300
H641        H  0.90447340  0.19873220  0.43161623     0.07600
H642        H  0.90965209  0.27970304  0.43205962     0.11300
H643        H  0.06670606  0.27171625  0.46992767     0.11000
H644        H  0.06140378  0.19090865  0.46937737     0.07600
C645        C  0.76098385  0.12157827  0.48793008    -0.11500
C646        C  0.78323074  0.15454322  0.46513702     0.05600
C647        C  0.80756803  0.14225148  0.43000527    -0.10300
C648        C  0.80900231  0.09791596  0.41721038    -0.11900
C649        C  0.78643234  0.06474452  0.43950694    -0.01700
C650        C  0.76312007  0.07680495  0.47551358    -0.10800
C651        C  0.77896687  0.20220197  0.47539520     0.05700
H652        H  0.82415487  0.16725145  0.41151983     0.07600
H653        H  0.82778824  0.08962725  0.38970251     0.11100
H654        H  0.74525938  0.05187368  0.49310663     0.11300
H655        H  0.74178066  0.13055468  0.51500560     0.07600
C656        C  0.73269940  0.22255565  0.47065409    -0.11500
C657        C  0.72902427  0.26890687  0.47190802    -0.10800
C658        C  0.77162263  0.29559380  0.47786899    -0.01700
C659        C  0.81780949  0.27488043  0.48529795    -0.11900
C660        C  0.82137858  0.22858915  0.48413150    -0.10300
H661        H  0.69954785  0.20272616  0.46364856     0.07600
H662        H  0.69288950  0.28384302  0.46638714     0.11300
H663        H  0.85125971  0.29445128  0.49082536     0.11000
H664        H  0.85729387  0.21329691  0.48883199     0.07600
C665        C  0.78710821  0.64185782  0.45465317    -0.11500
C666        C  0.74060067  0.66190488  0.45235563     0.05600
C667        C  0.69872479  0.63451761  0.44876277    -0.10300
C668        C  0.70319530  0.58830426  0.44957602    -0.11900
C669        C  0.74972719  0.56823018  0.45359424    -0.01700
C670        C  0.79162299  0.59549541  0.45515557    -0.10800
C671        C  0.73557436  0.71082288  0.45743032     0.05700
H672        H  0.66250219  0.64886037  0.44698168     0.07600
H673        H  0.67011925  0.56832918  0.44795454     0.11100
H674        H  0.82798340  0.58107044  0.45781326     0.11300
H675        H  0.82007732  0.66202623  0.45672125     0.07600
C676        C  0.76839545  0.73415811  0.48840283    -0.11500
C677        C  0.76006154  0.77871756  0.49778574    -0.10800
C678        C  0.71900156  0.80100951  0.47616834    -0.01700
C679        C  0.68749269  0.77857081  0.44365928    -0.11900
C680        C  0.69557431  0.73384154  0.43448309    -0.10300
H681        H  0.79923984  0.71743093  0.50698699     0.07600
H682        H  0.78513656  0.79553726  0.52269132     0.11300
H683        H  0.65538072  0.79499441  0.42672659     0.11000
H684        H  0.66988423  0.71700244  0.41009987     0.07600
C685        C  0.96859444  0.62656294  0.46811606    -0.11500
C686        C  0.51460877  0.64775881  0.47032890     0.05600
C687        C  0.55736681  0.62181850  0.47781047    -0.10300
C688        C  0.55414550  0.57552859  0.47996570    -0.11900
C689        C  0.50804670  0.55428343  0.47513118    -0.01700
C690        C  0.96534173  0.58035458  0.47045215    -0.10800
C691        C  0.51763273  0.69605170  0.46106924     0.05700
H692        H  0.59325905  0.63708708  0.48011388     0.07600
H693        H  0.58776020  0.55634727  0.48418624     0.11100
H694        H  0.92928717  0.56502584  0.46715683     0.11300
H695        H  0.93493446  0.64566238  0.46355989     0.07600
C696        C  0.48376065  0.71505777  0.42814508    -0.11500
C697        C  0.48745178  0.75965910  0.41715005    -0.10800
C698        C  0.52511445  0.78640593  0.43871763    -0.01700
C699        C  0.55872105  0.76796713  0.47209021    -0.11900
C700        C  0.55519674  0.72303252  0.48304301    -0.10300
H701        H  0.95507799  0.69513629  0.40985439     0.07600
H702        H  0.96099863  0.77320913  0.39138533     0.11300
H703        H  0.58848537  0.78791880  0.48875876     0.11000
H704        H  0.58185487  0.70943031  0.50857746     0.07600
C705        C  0.98824847  0.42131457  0.76092046    -0.11500
C706        C  0.52832998  0.40794815  0.74026161     0.05600
C707        C  0.57327744  0.39899384  0.76647281    -0.10300
C708        C  0.57901210  0.40626292  0.81166763    -0.11900
C709        C  0.53971125  0.42253731  0.83196405    -0.01700
C710        C  0.49374608  0.42795195  0.80604266    -0.10800
C711        C  0.52392536  0.40594609  0.69158895     0.05700
H712        H  0.60455705  0.38723389  0.75194658     0.07600
H713        H  0.61480658  0.40034480  0.82974088     0.11100
H714        H  0.96252707  0.44003149  0.82053179     0.11300
H715        H  0.95307157  0.42886727  0.74211723     0.07600
C716        C  0.47929165  0.39378374  0.66620600    -0.11500
C717        C  0.97427935  0.39510375  0.62058538    -0.10800
C718        C  0.51396197  0.40793279  0.59915542    -0.01700
C719        C  0.55889216  0.41910043  0.62430219    -0.11900
C720        C  0.56371472  0.41845229  0.66992248    -0.10300
H721        H  0.94806664  0.38324070  0.68152910     0.07600
H722        H  0.93929287  0.38598199  0.60205726     0.11300
H723        H  0.59001840  0.42952324  0.60872672     0.11000
H724        H  0.59831514  0.42902679  0.68813761     0.07600
C725        C  0.75789965  0.43925345  0.16772899    -0.11500
C726        C  0.72051737  0.42177063  0.18957086     0.05600
C727        C  0.67576574  0.40933731  0.16442055    -0.10300
C728        C  0.66773349  0.41638913  0.11916795    -0.11900
C729        C  0.70453927  0.43575764  0.09768217    -0.01700
C730        C  0.75020502  0.44558869  0.12260978    -0.10800
C731        C  0.72747026  0.41892890  0.23839150     0.05700
H732        H  0.64647658  0.39458955  0.17972114     0.07600
H733        H  0.63231527  0.40729743  0.10185105     0.11100
H734        H  0.77953985  0.46024053  0.10722089     0.11300
H735        H  0.79264026  0.44992474  0.18556387     0.07600
C736        C  0.77438009  0.41188502  0.26223019    -0.11500
C737        C  0.78140665  0.41305872  0.30796048    -0.10800
C738        C  0.74160396  0.42052720  0.33112226    -0.01700
C739        C  0.69453690  0.42615144  0.30750567    -0.11900
C740        C  0.68760848  0.42569209  0.26183088    -0.10300
H741        H  0.80591966  0.40559527  0.24565447     0.07600
H742        H  0.81808370  0.40822505  0.32517181     0.11300
H743        H  0.66307936  0.43217206  0.32431710     0.11000
H744        H  0.65111178  0.43211935  0.24502490     0.07600
C745        C  0.54510753  0.72585599  0.93341839    -0.11500
C746        C  0.50836834  0.69642986  0.94331192     0.05600
C747        C  0.96556983  0.71408261  0.95692427    -0.10300
C748        C  0.95952597  0.76016954  0.96001118    -0.11900
C749        C  0.49646111  0.78939945  0.95011096    -0.01700
C750        C  0.53935603  0.77170353  0.93699908    -0.10800
C751        C  0.51448509  0.64769346  0.93802598     0.05700
H752        H  0.93632402  0.69232242  0.96423335     0.07600
H753        H  0.92605759  0.77291385  0.97022849     0.11100
H754        H  0.56826638  0.79336359  0.92879562     0.11300
H755        H  0.57853502  0.71341190  0.92294059     0.07600
C756        C  0.53582977  0.63134265  0.90246729    -0.11500
C757        C  0.54279757  0.58590497  0.89737049    -0.10800
C758        C  0.52803950  0.55530337  0.92736342    -0.01700
C759        C  0.50669824  0.57142369  0.96305284    -0.11900
C760        C  0.49984069  0.61723305  0.96828140    -0.10300
H761        H  0.54692906  0.65371268  0.87822288     0.07600
H762        H  0.56034454  0.57487779  0.86997590     0.11300
H763        H  0.49470078  0.54867177  0.98654415     0.11000
H764        H  0.48365608  0.62885015  0.99624458     0.07600
C765        C  0.91538835  0.93189076  0.75138248    -0.11500
C766        C  0.95705226  0.92324883  0.73069801     0.05600
C767        C  0.50235809  0.91596634  0.75684811    -0.10300
C768        C  0.50620766  0.91819004  0.80222298    -0.11900
C769        C  0.96471593  0.92690763  0.82281715    -0.01700
C770        C  0.91912661  0.93334573  0.79699018    -0.10800
C771        C  0.95381437  0.92339234  0.68218645     0.05700
H772        H  0.53501682  0.90816048  0.74236778     0.07600
H773        H  0.54175305  0.91241669  0.82123967     0.11100
H774        H  0.88657743  0.94021484  0.81200645     0.11300
H775        H  0.88005198  0.93848204  0.73240468     0.07600
C776        C  0.91100084  0.90889935  0.65562850    -0.11500
C777        C  0.90652706  0.91279919  0.61018927    -0.10800
C778        C  0.94495104  0.93126509  0.59007079    -0.01700
C779        C  0.98922729  0.94213431  0.61659212    -0.11900
C780        C  0.99329381  0.93914148  0.66193204    -0.10300
H781        H  0.88059413  0.89487142  0.66994496     0.07600
H782        H  0.87267067  0.90148759  0.59157447     0.11300
H783        H  0.02000080  0.95542663  0.60221553     0.11000
H784        H  0.52687741  0.95086734  0.68102412     0.07600
C785        C  0.96729893  0.91210853  0.15984776    -0.11500
C786        C  0.51490333  0.91259249  0.18343355     0.05600
C787        C  0.55550317  0.91539744  0.16043484    -0.10300
C788        C  0.54863350  0.91813247  0.11490070    -0.11900
C789        C  0.50100879  0.91802637  0.09139585    -0.01700
C790        C  0.96042924  0.91481558  0.11435854    -0.10800
C791        C  0.52189060  0.91027462  0.23183745     0.05700
H792        H  0.59256608  0.91622569  0.17768253     0.07600
H793        H  0.58066427  0.92044885  0.09813946     0.11100
H794        H  0.92329867  0.91440729  0.09720639     0.11300
H795        H  0.93526894  0.90916144  0.17654331     0.07600
C796        C  0.98996933  0.93315922  0.25574090    -0.11500
C797        C  0.99445912  0.92934047  0.30105706    -0.10800
C798        C  0.53126191  0.90242114  0.32398266    -0.01700
C799        C  0.56416060  0.88065838  0.29987097    -0.11900
C800        C  0.55958982  0.88451431  0.25446204    -0.10300
H801        H  0.96111260  0.95398046  0.23930955     0.07600
H802        H  0.96782383  0.94698927  0.31693431     0.11300
H803        H  0.59276092  0.85952653  0.31625540     0.11000
H804        H  0.58462389  0.86616819  0.23697150     0.07600
C805        C  0.73076637  0.62341581  0.95001993    -0.11500
C806        C  0.71265666  0.65478479  0.97764301     0.05600
C807        C  0.69056067  0.63957548  0.01317940    -0.10300
C808        C  0.68653544  0.59428128  0.02100232    -0.11900
C809        C  0.70493716  0.56283279  0.99377682    -0.01700
C810        C  0.72671582  0.57775143  0.95792203    -0.10800
C811        C  0.71640215  0.70330806  0.96996449     0.05700
H812        H  0.67680497  0.66278185  0.03540855     0.07600
H813        H  0.66862673  0.58393255  0.04840259     0.11100
H814        H  0.74138248  0.55422837  0.93653146     0.11300
H815        H  0.74764402  0.63418744  0.92216453     0.07600
C816        C  0.75958919  0.72223779  0.95828913    -0.11500
C817        C  0.76372554  0.76838996  0.95400261    -0.10800
C818        C  0.72451220  0.79636815  0.96076802    -0.01700
C819        C  0.68108662  0.77728640  0.97157800    -0.11900
C820        C  0.67719254  0.73138792  0.97632317    -0.10300
H821        H  0.79065321  0.70150479  0.95373015     0.07600
H822        H  0.79769659  0.78217875  0.94568585     0.11300
H823        H  0.65039441  0.79793215  0.97736494     0.11000
H824        H  0.64346569  0.71783930  0.98532498     0.07600
C825        C  0.71811973  0.92994906  0.15749397    -0.11500
C826        C  0.76425254  0.93797199  0.18215871     0.05600
C827        C  0.80517016  0.94468914  0.16000759    -0.10300
C828        C  0.80000214  0.94338586  0.11439586    -0.11900
C829        C  0.75372176  0.93590577  0.08990266    -0.01700
C830        C  0.71287133  0.92921192  0.11194442    -0.10800
C831        C  0.76949951  0.93993602  0.23068850     0.05700
H832        H  0.84111696  0.95173278  0.17783343     0.07600
H833        H  0.83211434  0.94889553  0.09830553     0.11100
H834        H  0.67680525  0.92293800  0.09397796     0.11300
H835        H  0.68601851  0.92374445  0.17335622     0.07600
C836        C  0.73210179  0.95812498  0.25199949    -0.11500
C837        C  0.73789746  0.96153202  0.29745651    -0.10800
C838        C  0.78154354  0.94765267  0.32303217    -0.01700
C839        C  0.81823793  0.92794433  0.30159936    -0.11900
C840        C  0.81221494  0.92418564  0.25613909    -0.10300
H841        H  0.69881627  0.97101549  0.23356326     0.07600
H842        H  0.70877136  0.97658312  0.31275923     0.11300
H843        H  0.85210016  0.91556922  0.31897832     0.11000
H844        H  0.84122305  0.90885994  0.24092779     0.07600
C845        C  0.73251668  0.94948352  0.65645639    -0.11500
C846        C  0.70061954  0.92599279  0.67998578     0.05600
C847        C  0.66458748  0.89837436  0.65710593    -0.10300
C848        C  0.66148211  0.89339969  0.61185569    -0.11900
C849        C  0.69365602  0.91651029  0.58798920    -0.01700
C850        C  0.72922125  0.94482710  0.61114371    -0.10800
C851        C  0.70655842  0.92847498  0.72841171     0.05700
H852        H  0.63994649  0.87927909  0.67439752     0.07600
H853        H  0.63446906  0.87050851  0.59545886     0.11100
H854        H  0.75615079  0.96227773  0.59532382     0.11300
H855        H  0.76060571  0.97112106  0.67324376     0.07600
C856        C  0.75365755  0.92696603  0.75276661    -0.11500
C857        C  0.75944656  0.92768066  0.79836116    -0.10800
C858        C  0.71828669  0.93008107  0.82070418    -0.01700
C859        C  0.67115252  0.93197430  0.79635977    -0.11900
C860        C  0.66535657  0.93106658  0.75069605    -0.10300
H861        H  0.78605440  0.92427655  0.73654874     0.07600
H862        H  0.79621772  0.92610091  0.81611441     0.11300
H863        H  0.63868687  0.93401202  0.81256323     0.11000
H864        H  0.62864553  0.93266186  0.73277480     0.07600
C865        C  0.00298260  0.43937059  0.16708463    -0.11500
C866        C  0.96247355  0.43453636  0.18999310     0.05600
C867        C  0.91582708  0.42719579  0.16607087    -0.10300
C868        C  0.91012547  0.42309373  0.12064539    -0.11900
C869        C  0.95076709  0.42700592  0.09756132    -0.01700
C870        C  0.99736033  0.43492210  0.12168523    -0.10800
C871        C  0.96929994  0.43385386  0.23863348     0.05700
H872        H  0.88397875  0.42200833  0.18255992     0.07600
H873        H  0.87412297  0.41421173  0.10413170     0.11100
H874        H  0.03010468  0.43567482  0.10584367     0.11300
H875        H  0.53946113  0.44536687  0.18431421     0.07600
C876        C  0.01160921  0.41465588  0.26200235    -0.11500
C877        C  0.01751270  0.41254876  0.30753169    -0.10800
C878        C  0.98091411  0.42887676  0.33080920    -0.01700
C879        C  0.93848513  0.44786676  0.30767843    -0.11900
C880        C  0.93290583  0.45065688  0.26211580    -0.10300
H881        H  0.03983016  0.40027596  0.24513334     0.07600
H882        H  0.05032633  0.39724212  0.32448264     0.11300
H883        H  0.90976709  0.46091289  0.32484066     0.11000
H884        H  0.90012194  0.46611679  0.24533700     0.07600
C885        C  0.00205272  0.13585170  0.96179975    -0.11500
C886        C  0.96074784  0.15463205  0.97700344     0.05600
C887        C  0.92305591  0.12620990  0.98691135    -0.10300
C888        C  0.92637136  0.08022180  0.98135808    -0.11900
C889        C  0.96773187  0.06153649  0.96628866    -0.01700
C890        C  0.00561366  0.08981790  0.95671681    -0.10800
C891        C  0.95768887  0.20349381  0.98373711     0.05700
H892        H  0.89087647  0.13951888  0.99892732     0.07600
H893        H  0.89703673  0.05918773  0.98975804     0.11100
H894        H  0.53811750  0.07634822  0.94531358     0.11300
H895        H  0.03219295  0.15666620  0.95474331     0.07600
C896        C  0.93861582  0.22037961  0.02028809    -0.11500
C897        C  0.93663395  0.26609592  0.02738362    -0.10800
C898        C  0.95403518  0.29627299  0.99831541    -0.01700
C899        C  0.97248153  0.27957205  0.96139416    -0.11900
C900        C  0.97438639  0.23363477  0.95421463    -0.10300
H901        H  0.92579253  0.19823062  0.04387641     0.07600
H902        H  0.92088440  0.27772728  0.05555925     0.11300
H903        H  0.98623092  0.30190318  0.93845723     0.11000
H904        H  0.98872669  0.22170146  0.92542102     0.07600
C905        C  0.76281991  0.46488069  0.76491142    -0.11500
C906        C  0.79492303  0.44161983  0.74126913     0.05600
C907        C  0.82974206  0.41309317  0.76405624    -0.10300
C908        C  0.83089355  0.40647220  0.80885653    -0.11900
C909        C  0.79743864  0.42818910  0.83243741    -0.01700
C910        C  0.76395572  0.45829683  0.80985208    -0.10800
C911        C  0.78994454  0.44457946  0.69274917     0.05700
H912        H  0.85472809  0.39421718  0.74698309     0.07600
H913        H  0.85701207  0.38290248  0.82501347     0.11100
H914        H  0.73724031  0.47586205  0.82579313     0.11300
H915        H  0.73606577  0.48770635  0.74847919     0.07600
C916        C  0.74310356  0.44648763  0.66789410    -0.11500
C917        C  0.73784319  0.44586355  0.62230361    -0.10800
C918        C  0.77926152  0.44328743  0.60029573    -0.01700
C919        C  0.82621508  0.44236293  0.62501627    -0.11900
C920        C  0.83149395  0.44297251  0.67071496    -0.10300
H921        H  0.71024664  0.44695885  0.68363836     0.07600
H922        H  0.70113423  0.44662642  0.60430101     0.11300
H923        H  0.85888988  0.44043161  0.60908711     0.11000
H924        H  0.86814046  0.44197086  0.68878919     0.07600
C925        C  0.71247024  0.14300655  0.95656967    -0.11500
C926        C  0.75663966  0.16275400  0.94834700     0.05600
C927        C  0.79614906  0.13554044  0.94124053    -0.10300
C928        C  0.79189038  0.08932549  0.94283256    -0.11900
C929        C  0.74797148  0.06938615  0.95158222    -0.01700
C930        C  0.70819235  0.09670621  0.95828677    -0.10800
C931        C  0.76122189  0.21158510  0.94542110     0.05700
H932        H  0.82995273  0.15013952  0.93345180     0.07600
H933        H  0.82271921  0.06917481  0.93648986     0.11100
H934        H  0.67382225  0.08232696  0.96498126     0.11300
H935        H  0.68143190  0.16344105  0.96191895     0.07600
C936        C  0.72647887  0.23581975  0.91750872    -0.11500
C937        C  0.73316775  0.28130754  0.91146915    -0.10800
C938        C  0.77412647  0.30342588  0.93396596    -0.01700
C939        C  0.80777417  0.27966218  0.96332915    -0.11900
C940        C  0.80169145  0.23391755  0.96863948    -0.10300
H941        H  0.69516643  0.21921268  0.89914435     0.07600
H942        H  0.70670792  0.29918060  0.88880043     0.11300
H943        H  0.83974141  0.29614209  0.98074809     0.11000
H944        H  0.82880149  0.21581496  0.99045723     0.07600
loop_ 
_geom_bond_atom_site_label_1 
_geom_bond_atom_site_label_2 
_geom_bond_distance 
_geom_bond_site_symmetry_2 
_ccdc_geom_bond_type 
C1            C2   1.549       .  S
C1            C7   1.534       .  S
C1            C5   1.538       .  S
C1          C437   1.529       .  S
C2            H9   1.077       .  S
C2            C3   1.375       .  D
C3            C4   1.544       .  S
C3           C60   1.500       .  S
C4            C8   1.534       .  S
C4            C6   1.530       .  S
C4           H10   1.106       .  S
C5           H11   1.087       .  S
C5            C6   1.361       .  D
C6           C18   1.471       .  S
C7           H12   1.087       .  S
C7            C8   1.361       .  D
C8          C466   1.477       .  S
C13          C14   1.541       .  S
C13          C19   1.528       .  S
C13          C17   1.542       .  S
C13         C397   1.524       .  S
C14          H21   1.081       .  S
C14          C15   1.373   1_554  D
C15          C16   1.547       .  S
C15         C542   1.500       .  S
C16          C20   1.542   1_556  S
C16          C18   1.532       .  S
C16          H22   1.106       .  S
C17          H23   1.085       .  S
C17          C18   1.363   1_554  D
C19          H24   1.086       .  S
C19          C20   1.363       .  D
C20         C426   1.488   1_554  S
O25         Cu33   2.008       .  S
O25          C35   1.279       .  A
O26         Cu33   2.013   1_554  S
O26          C36   1.279       .  A
O27         Cu33   2.012       .  S
O27          C37   1.278       .  A
O28         Cu33   2.008       .  S
O28          C38   1.279   1_565  A
O29         Cu34   2.009   1_545  S
O29          C38   1.278       .  A
O30         Cu34   2.005       .  S
O30          C37   1.278       .  A
O31         Cu34   2.004   1_554  S
O31          C36   1.278       .  A
O32         Cu34   2.010       .  S
O32          C35   1.278       .  A
Cu33        Cu34   2.371       .  S
C35         C386   1.482       .  S
C36         C357   1.479       .  S
C37         C346   1.480       .  S
C38         C457   1.480       .  S
O39         Cu47   2.021       .  S
O39          C49   1.280       .  A
O40         Cu47   2.009   1_554  S
O40          C50   1.279       .  A
O41         Cu47   2.015       .  S
O41          C51   1.279   1_565  A
O42         Cu47   2.016       .  S
O42          C52   1.279       .  A
O43         Cu48   2.002       .  S
O43         C524   1.278   1_455  A
O44         Cu48   2.008       .  S
O44         C523   1.278   1_465  A
O45         Cu48   2.001   1_554  S
O45         C522   1.277   1_455  A
O46         Cu48   1.994       .  S
O46         C521   1.277   1_455  A
Cu47       Cu520   2.372       .  S
Cu48       Cu519   2.372   1_455  S
C49         O518   1.277       .  A
C49         C297   1.479       .  S
C50         O517   1.277       .  A
C50         C789   1.479       .  S
C51         O516   1.278   1_545  A
C51         C417   1.480       .  S
C52         O515   1.278       .  A
C52         C749   1.479       .  S
C53          C54   1.530       .  S
C53          C59   1.536       .  S
C53          C57   1.548       .  S
C53         C257   1.531       .  S
C54          H61   1.086       .  S
C54          C55   1.362       .  D
C55          C56   1.540   1_554  S
C55         C337   1.484   1_554  S
C56          C60   1.545       .  S
C56          C58   1.534       .  S
C56          H62   1.106       .  S
C57          H63   1.083       .  S
C57          C58   1.368   1_554  D
C58          C67   1.479       .  S
C59          H64   1.082       .  S
C59          C60   1.372   1_554  D
C65          C66   1.548       .  S
C65          C71   1.531       .  S
C65          C69   1.538       .  S
C65         C237   1.530       .  S
C66          H73   1.082       .  S
C66          C67   1.367       .  D
C67          C68   1.533       .  S
C68          C72   1.541       .  S
C68          C70   1.547       .  S
C68          H74   1.105       .  S
C69         H547   1.082   1_455  S
C69          C70   1.373       .  D
C70         C487   1.500   1_455  S
C71          H76   1.086       .  S
C71          C72   1.361       .  D
C72         C286   1.488       .  S
H75         C541   1.082       .  S
C77          C78   1.542   1_455  S
C77          C83   1.531       .  S
C77          C81   1.538       .  S
C77         C326   1.529       .  S
C78         H557   1.073       .  S
C78          C79   1.371   1_655  D
C79          C80   1.544       .  S
C79         C618   1.500   1_455  S
C80          C84   1.537       .  S
C80          C82   1.536       .  S
C80          H86   1.106       .  S
C81          H87   1.086       .  S
C81          C82   1.365       .  D
C82          C94   1.477       .  S
C83          H88   1.087       .  S
C83          C84   1.363       .  D
C84         C226   1.478       .  S
H85         C550   1.073       .  S
C89          C90   1.544       .  S
C89          C95   1.535       .  S
C89          C93   1.538       .  S
C89         C377   1.529       .  S
C90          H97   1.077       .  S
C90          C91   1.371       .  D
C91          C92   1.544       .  S
C91         C136   1.497       .  S
C92          C96   1.535       .  S
C92          C94   1.536       .  S
C92          H98   1.106       .  S
C93          H99   1.086       .  S
C93          C94   1.364       .  D
C95         H100   1.086       .  S
C95          C96   1.363       .  D
C96         C206   1.481       .  S
O101       Cu109   2.009       .  S
O101        C111   1.278       .  A
O102       Cu109   2.009       .  S
O102        C112   1.279       .  A
O103       Cu109   2.004       .  S
O103        C113   1.278       .  A
O104       Cu109   2.008       .  S
O104        C114   1.278       .  A
O105       Cu110   2.011       .  S
O105        C114   1.279       .  A
O106       Cu110   2.017       .  S
O106        C113   1.279       .  A
O107       Cu110   2.018       .  S
O107        C112   1.279       .  A
O108       Cu110   2.022       .  S
O108        C111   1.280       .  A
Cu109      Cu110   2.370       .  S
C111        C266   1.485       .  S
C112        C446   1.484       .  S
C113        C197   1.483       .  S
C114        C186   1.481       .  S
O115       Cu123   2.008       .  S
O115        C597   1.279       .  A
O116       Cu123   2.010       .  S
O116        C126   1.279       .  A
O117       Cu123   2.013       .  S
O117        C599   1.279       .  A
O118       Cu123   2.008       .  S
O118        C128   1.278       .  A
O119       Cu124   2.011       .  S
O119        C600   1.279   1_455  A
O120       Cu124   2.012       .  S
O120        C127   1.279       .  A
O121       Cu124   1.999       .  S
O121        C598   1.277   1_455  A
O122       Cu124   2.000       .  S
O122        C125   1.277       .  A
Cu123      Cu596   2.372       .  S
Cu124      Cu595   2.372   1_455  S
C125        O587   1.279   1_455  A
C125        C217   1.478       .  S
C126        O593   1.277       .  A
C126        C166   1.477       .  S
C127        O589   1.279   1_455  A
C127        C246   1.481       .  S
C128        O591   1.279       .  A
C128        C406   1.478       .  S
C129        C130   1.533   1_565  S
C129        C135   1.539       .  S
C129        C133   1.543       .  S
C129        C366   1.528       .  S
C130        H137   1.086       .  S
C130        C131   1.363       .  D
C131        C132   1.537   1_545  S
C131        C177   1.484       .  S
C132        C136   1.545       .  S
C132        C134   1.533       .  S
C132        H138   1.106       .  S
C133        H139   1.081       .  S
C133        C134   1.361       .  D
C134        C143   1.474       .  S
C135        H140   1.083       .  S
C135        C136   1.373       .  D
C141        C142   1.544       .  S
C141        C147   1.537       .  S
C141        C145   1.540       .  S
C141        C306   1.527       .  S
C142        H149   1.082       .  S
C142        C143   1.362       .  D
C143        C144   1.531       .  S
C144        C148   1.532   1_565  S
C144        C146   1.545       .  S
C144        H150   1.102       .  S
C145        H151   1.083       .  S
C145        C146   1.372       .  D
C146        C551   1.500       .  S
C147        H152   1.086   1_565  S
C147        C148   1.362   1_565  D
C148        C157   1.482       .  S
C153        C154   1.406       .  A
C153        C158   1.393       .  A
C153        H163   1.082       .  S
C154        C159   1.484       .  S
C154        C155   1.406       .  A
C155        C156   1.399       .  A
C155        H160   1.083       .  S
C156        C157   1.405       .  A
C156        H161   1.082       .  S
C157        C158   1.403       .  A
C158        H162   1.083       .  S
C159        C164   1.405       .  A
C159        C168   1.405       .  A
C164        C165   1.397       .  A
C164        H169   1.080       .  S
C165        C166   1.404       .  A
C165        H170   1.083       .  S
C166        C167   1.405       .  A
C167        C168   1.395       .  A
C167        H171   1.083       .  S
C168        H172   1.083       .  S
C173        C174   1.404       .  A
C173        C178   1.403       .  A
C173        H183   1.083       .  S
C174        C179   1.476       .  S
C174        C175   1.401       .  A
C175        C176   1.392       .  A
C175        H180   1.083       .  S
C176        C177   1.405       .  A
C176        H181   1.083       .  S
C177        C178   1.406       .  A
C178        H182   1.083       .  S
C179        C184   1.402       .  A
C179        C188   1.402       .  A
C184        C185   1.399       .  A
C184        H189   1.083       .  S
C185        C186   1.408       .  A
C185        H190   1.083       .  S
C186        C187   1.406       .  A
C187        C188   1.397       .  A
C187        H191   1.083       .  S
C188        H192   1.082       .  S
C193        C194   1.407       .  A
C193        C198   1.401       .  A
C193        H203   1.083       .  S
C194        C199   1.488       .  S
C194        C195   1.404       .  A
C195        C196   1.396       .  A
C195        H200   1.080       .  S
C196        C197   1.405       .  A
C196        H201   1.083       .  S
C197        C198   1.406       .  A
C198        H202   1.083       .  S
C199        C204   1.406       .  A
C199        C208   1.408       .  A
C204        C205   1.397       .  A
C204        H209   1.083       .  S
C205        C206   1.403       .  A
C205        H210   1.083       .  S
C206        C207   1.403       .  A
C207        C208   1.399       .  A
C207        H211   1.083       .  S
C208        H212   1.083       .  S
C213        C218   1.395       .  A
C213        C686   1.407       .  A
C213        H223   1.083       .  S
C214        C219   1.486       .  S
C214        C215   1.405       .  A
C214        C685   1.407   1_455  A
C215        C216   1.397       .  A
C215        H220   1.080       .  S
C216        C217   1.406       .  A
C216        H221   1.083       .  S
C217        C690   1.404   1_455  A
C218        C689   1.404       .  A
C218        H222   1.083       .  S
C219        C224   1.406   1_455  A
C219        C228   1.409       .  A
C224        C225   1.392       .  A
C224        H701   1.083       .  S
C225        C226   1.402   1_655  A
C225        H702   1.083       .  S
C226        C227   1.403       .  A
C227        C228   1.401       .  A
C227        H231   1.083       .  S
C228        H232   1.083       .  S
H229        C696   1.083       .  S
H230        C697   1.083       .  S
C233        C706   1.406       .  A
C233        C710   1.396       .  A
C233        H243   1.082       .  S
C234        C239   1.494       .  S
C234        C235   1.408       .  A
C234        C705   1.406   1_455  A
C235        C236   1.401       .  A
C235        H240   1.083       .  S
C236        C237   1.409       .  A
C236        H241   1.078       .  S
C237        C238   1.410   1_455  A
C238        C705   1.396       .  A
C238        H714   1.084       .  S
C239        C244   1.409   1_455  A
C239        C248   1.409       .  A
H242        C710   1.084       .  S
C244        C717   1.399       .  A
C244        H721   1.082       .  S
C245        C716   1.399       .  A
C245        C718   1.405       .  A
C245        H250   1.083       .  S
C246        C247   1.405       .  A
C246        C717   1.405   1_455  A
C247        C248   1.399       .  A
C247        H251   1.083       .  S
C248        H252   1.082       .  S
H249        C716   1.082       .  S
C253        C254   1.406       .  A
C253        C258   1.396       .  A
C253        H263   1.082       .  S
C254        C259   1.498       .  S
C254        C255   1.410       .  A
C255        C256   1.403       .  A
C255        H260   1.082       .  S
C256        C257   1.409       .  A
C256        H261   1.078       .  S
C257        C258   1.409       .  A
C258        H262   1.084       .  S
C259        C264   1.411       .  A
C259        C268   1.408       .  A
C264        C265   1.401       .  A
C264        H269   1.082       .  S
C265        C266   1.405       .  A
C265        H270   1.083       .  S
C266        C267   1.406       .  A
C267        C268   1.399       .  A
C267        H271   1.083       .  S
C268        H272   1.082       .  S
C273        C274   1.406       .  A
C273        C278   1.395       .  A
C273        H283   1.082       .  S
C274        C279   1.487       .  S
C274        C747   1.407   1_455  A
C275        C276   1.401       .  A
C275        C746   1.407       .  A
C275        H280   1.083       .  S
C276        C749   1.406       .  A
C276        H281   1.083       .  S
C277        C524   1.479       .  S
C277        C278   1.403   1_655  A
C277        C748   1.406       .  A
C278        H282   1.083       .  S
C279        C284   1.404       .  A
C279        C288   1.408   1_455  A
C284        C285   1.392       .  A
C284        H289   1.083       .  S
C285        C286   1.406       .  A
C285        H290   1.082       .  S
C286        C287   1.405       .  A
C287        C288   1.403   1_455  A
C287        H291   1.083   1_455  S
C288        H292   1.083       .  S
C293        C294   1.410       .  A
C293        C298   1.400       .  A
C293        H303   1.082       .  S
C294        C299   1.490       .  S
C294        C767   1.406       .  A
C295        C296   1.394       .  A
C295        C766   1.406   1_455  A
C295        H300   1.082       .  S
C296        C769   1.405   1_455  A
C296        H301   1.083       .  S
C297        C298   1.404       .  A
C297        C768   1.405       .  A
C298        H302   1.083       .  S
C299        C304   1.406       .  A
C299        C308   1.406       .  A
C304        C305   1.399       .  A
C304        H309   1.083       .  S
C305        C306   1.410       .  A
C305        H310   1.078       .  S
C306        C307   1.407       .  A
C307        C308   1.394       .  A
C307        H311   1.084       .  S
C308        H784   1.082       .  S
H312        C780   1.082   1_455  S
C313        C318   1.396       .  A
C313        C786   1.407       .  A
C313        H323   1.083       .  S
C314        C319   1.485       .  S
C314        C315   1.405       .  A
C314        C785   1.407   1_455  A
C315        C316   1.397       .  A
C315        H320   1.083       .  S
C316        C317   1.406       .  A
C316        H321   1.083       .  S
C317        C522   1.479   1_455  S
C317        C790   1.404   1_455  A
C318        C789   1.404       .  A
C318        H322   1.083       .  S
C319        C328   1.404       .  A
C319        C796   1.403   1_455  A
C324        C325   1.395       .  A
C324        C791   1.403       .  A
C324        H329   1.083       .  S
C325        C798   1.411       .  A
C325        H330   1.076       .  S
C326        C327   1.409       .  A
C326        C797   1.411   1_455  A
C327        C328   1.398       .  A
C327        H331   1.083       .  S
C328        H332   1.083       .  S
C333        C334   1.408       .  A
C333        C338   1.403       .  A
C333        H343   1.083       .  S
C334        C339   1.485       .  S
C334        C335   1.403   1_556  A
C335        C336   1.391       .  A
C335        H340   1.083       .  S
C336        C337   1.405   1_554  A
C336        H341   1.083       .  S
C337        C338   1.404       .  A
C338        H342   1.083       .  S
C339        C344   1.406       .  A
C339        C348   1.405       .  A
C344        C345   1.401       .  A
C344        H349   1.083       .  S
C345        C346   1.407       .  A
C345        H350   1.083       .  S
C346        C347   1.404       .  A
C347        C348   1.394       .  A
C347        H351   1.083       .  S
C348        H352   1.082       .  S
C353        C354   1.406       .  A
C353        C358   1.396       .  A
C353        H363   1.082       .  S
C354        C359   1.489       .  S
C354        C355   1.408       .  A
C355        C356   1.398       .  A
C355        H360   1.083       .  S
C356        C357   1.405       .  A
C356        H361   1.083       .  S
C357        C358   1.405       .  A
C358        H362   1.083       .  S
C359        C364   1.406       .  A
C359        C368   1.404       .  A
C364        C365   1.396       .  A
C364        H369   1.082       .  S
C365        C366   1.408       .  A
C365        H370   1.083       .  S
C366        C367   1.411       .  A
C367        C368   1.397       .  A
C367        H371   1.076       .  S
C368        H372   1.083       .  S
C373        C374   1.404       .  A
C373        C378   1.398       .  A
C373        H383   1.083       .  S
C374        C379   1.485       .  S
C374        C375   1.403       .  A
C375        C376   1.398       .  A
C375        H380   1.083       .  S
C376        C377   1.410       .  A
C376        H381   1.083       .  S
C377        C378   1.411       .  A
C378        H382   1.077       .  S
C379        C384   1.406       .  A
C379        C388   1.406       .  A
C384        C385   1.397       .  A
C384        H389   1.083       .  S
C385        C386   1.405       .  A
C385        H390   1.083       .  S
C386        C387   1.407       .  A
C387        C388   1.399       .  A
C387        H391   1.083       .  S
C388        H392   1.083       .  S
C393        C394   1.406       .  A
C393        C398   1.397       .  A
C393        H875   1.083       .  S
C394        C399   1.490       .  S
C394        C395   1.405       .  A
C395        C396   1.397       .  A
C395        H400   1.082       .  S
C396        C397   1.410       .  A
C396        H401   1.081       .  S
C397        C398   1.409       .  A
C398        H402   1.082       .  S
C399        C404   1.408       .  A
C399        C408   1.408       .  A
H403        C865   1.083       .  S
C404        C405   1.397       .  A
C404        H409   1.082       .  S
C405        C406   1.403       .  A
C405        H410   1.083       .  S
C406        C407   1.405       .  A
C407        C408   1.399       .  A
C407        H411   1.083       .  S
C408        H412   1.083       .  S
C413        C414   1.406       .  A
C413        C418   1.398       .  A
C413        H423   1.083       .  S
C414        C419   1.488       .  S
C414        C415   1.407       .  A
C415        C416   1.398       .  A
C415        H420   1.082       .  S
C416        C417   1.404       .  A
C416        H421   1.083       .  S
C417        C418   1.405       .  A
C418        H894   1.083       .  S
C419        C424   1.404   1_556  A
C419        C428   1.408       .  A
H422        C890   1.083       .  S
C424        C425   1.394       .  A
C424        H429   1.083       .  S
C425        C426   1.407   1_554  A
C425        H430   1.082       .  S
C426        C427   1.403       .  A
C427        C428   1.401       .  A
C427        H431   1.083       .  S
C428        H432   1.083       .  S
C433        C434   1.407       .  A
C433        C438   1.400       .  A
C433        H443   1.083       .  S
C434        C439   1.491       .  S
C434        C435   1.404       .  A
C435        C436   1.396       .  A
C435        H440   1.083       .  S
C436        C437   1.410       .  A
C436        H441   1.083       .  S
C437        C438   1.409       .  A
C438        H442   1.077       .  S
C439        C444   1.407       .  A
C439        C448   1.408       .  A
C444        C445   1.397       .  A
C444        H449   1.083       .  S
C445        C446   1.406       .  A
C445        H450   1.083       .  S
C446        C447   1.406       .  A
C447        C448   1.401       .  A
C447        H451   1.083       .  S
C448        H452   1.083       .  S
C453        C454   1.404       .  A
C453        C458   1.399       .  A
C453        H463   1.083       .  S
C454        C459   1.478       .  S
C454        C455   1.402       .  A
C455        C456   1.396       .  A
C455        H460   1.083       .  S
C456        C457   1.405       .  A
C456        H461   1.082       .  S
C457        C458   1.407       .  A
C458        H462   1.083       .  S
C459        C464   1.403       .  A
C459        C468   1.406       .  A
C464        C465   1.397       .  A
C464        H469   1.083       .  S
C465        C466   1.404       .  A
C465        H470   1.083       .  S
C466        C467   1.403       .  A
C467        C468   1.399       .  A
C467        H471   1.083       .  S
C468        H472   1.083       .  S
C473        C474   1.549       .  S
C473        C479   1.534       .  S
C473        C477   1.538       .  S
C473        C909   1.529       .  S
C474        H481   1.077       .  S
C474        C475   1.375       .  D
C475        C476   1.544       .  S
C475        C532   1.500       .  S
C476        C480   1.534       .  S
C476        C478   1.530       .  S
C476        H482   1.106       .  S
C477        H483   1.087       .  S
C477        C478   1.361       .  D
C478        C490   1.471       .  S
C479        H484   1.087       .  S
C479        C480   1.361       .  D
C480        C938   1.477       .  S
C485        C486   1.541       .  S
C485        C491   1.528       .  S
C485        C489   1.542       .  S
C485        C869   1.524       .  S
C486        H493   1.081   1_655  S
C486        C487   1.373   1_554  D
C487        C488   1.547       .  S
C488        C492   1.542   1_556  S
C488        C490   1.532       .  S
C488        H494   1.106       .  S
C489        H495   1.085       .  S
C489        C490   1.363   1_554  D
C491        H496   1.086       .  S
C491        C492   1.363       .  D
C492        C898   1.488   1_554  S
O497       Cu505   2.008       .  S
O497        C507   1.279       .  A
O498       Cu505   2.013   1_554  S
O498        C508   1.279       .  A
O499       Cu505   2.012       .  S
O499        C509   1.278       .  A
O500       Cu505   2.008       .  S
O500        C510   1.279   1_565  A
O501       Cu506   2.009   1_545  S
O501        C510   1.278       .  A
O502       Cu506   2.005       .  S
O502        C509   1.278       .  A
O503       Cu506   2.004   1_554  S
O503        C508   1.278       .  A
O504       Cu506   2.010       .  S
O504        C507   1.278       .  A
Cu505      Cu506   2.371       .  S
C507        C858   1.482       .  S
C508        C829   1.479       .  S
C509        C818   1.480       .  S
C510        C929   1.480       .  S
O511       Cu519   2.021       .  S
O511        C521   1.280       .  A
O512       Cu519   2.009   1_554  S
O512        C522   1.279       .  A
O513       Cu519   2.015       .  S
O513        C523   1.279   1_565  A
O514       Cu519   2.016       .  S
O514        C524   1.279       .  A
O515       Cu520   2.002       .  S
O516       Cu520   2.008       .  S
O517       Cu520   2.001   1_554  S
O518       Cu520   1.994       .  S
C521        C769   1.479       .  S
C523        C889   1.480       .  S
C525        C526   1.530       .  S
C525        C531   1.536       .  S
C525        C529   1.548       .  S
C525        C729   1.531       .  S
C526        H533   1.086       .  S
C526        C527   1.362       .  D
C527        C528   1.540   1_554  S
C527        C809   1.484   1_554  S
C528        C532   1.545       .  S
C528        C530   1.534       .  S
C528        H534   1.106       .  S
C529        H535   1.083       .  S
C529        C530   1.368   1_554  D
C530        C539   1.479       .  S
C531        H536   1.082       .  S
C531        C532   1.372   1_554  D
C537        C538   1.548       .  S
C537        C543   1.531       .  S
C537        C541   1.538       .  S
C537        C709   1.530       .  S
C538        H545   1.082       .  S
C538        C539   1.367       .  D
C539        C540   1.533       .  S
C540        C544   1.541       .  S
C540        C542   1.547       .  S
C540        H546   1.105       .  S
C541        C542   1.373       .  D
C543        H548   1.086       .  S
C543        C544   1.361       .  D
C544        C758   1.488       .  S
C549        C550   1.542       .  S
C549        C555   1.531       .  S
C549        C553   1.538       .  S
C549        C798   1.529       .  S
C550        C551   1.371       .  D
C551        C552   1.544       .  S
C552        C556   1.537       .  S
C552        C554   1.536       .  S
C552        H558   1.106       .  S
C553        H559   1.086       .  S
C553        C554   1.365       .  D
C554        C566   1.477       .  S
C555        H560   1.087       .  S
C555        C556   1.363       .  D
C556        C698   1.478       .  S
C561        C562   1.544       .  S
C561        C567   1.535       .  S
C561        C565   1.538       .  S
C561        C849   1.529       .  S
C562        H569   1.077       .  S
C562        C563   1.371       .  D
C563        C564   1.544       .  S
C563        C608   1.497       .  S
C564        C568   1.535       .  S
C564        C566   1.536       .  S
C564        H570   1.106       .  S
C565        H571   1.086       .  S
C565        C566   1.364       .  D
C567        H572   1.086       .  S
C567        C568   1.363       .  D
C568        C678   1.481       .  S
O573       Cu581   2.009       .  S
O573        C583   1.278       .  A
O574       Cu581   2.009       .  S
O574        C584   1.279       .  A
O575       Cu581   2.004       .  S
O575        C585   1.278       .  A
O576       Cu581   2.008       .  S
O576        C586   1.278       .  A
O577       Cu582   2.011       .  S
O577        C586   1.279       .  A
O578       Cu582   2.017       .  S
O578        C585   1.279       .  A
O579       Cu582   2.018       .  S
O579        C584   1.279       .  A
O580       Cu582   2.022       .  S
O580        C583   1.280       .  A
Cu581      Cu582   2.370       .  S
C583        C738   1.485       .  S
C584        C918   1.484       .  S
C585        C669   1.483       .  S
C586        C658   1.481       .  S
O587       Cu595   2.008       .  S
O588       Cu595   2.010       .  S
O588        C598   1.279       .  A
O589       Cu595   2.013       .  S
O590       Cu595   2.008       .  S
O590        C600   1.278       .  A
O591       Cu596   2.011       .  S
O592       Cu596   2.012       .  S
O592        C599   1.279       .  A
O593       Cu596   1.999       .  S
O594       Cu596   2.000       .  S
O594        C597   1.277       .  A
C597        C689   1.478       .  S
C598        C638   1.477       .  S
C599        C718   1.481       .  S
C600        C878   1.478       .  S
C601        C602   1.533   1_565  S
C601        C607   1.539       .  S
C601        C605   1.543       .  S
C601        C838   1.528       .  S
C602        H609   1.086       .  S
C602        C603   1.363       .  D
C603        C604   1.537   1_545  S
C603        C649   1.484       .  S
C604        C608   1.545       .  S
C604        C606   1.533       .  S
C604        H610   1.106       .  S
C605        H611   1.081       .  S
C605        C606   1.361       .  D
C606        C615   1.474       .  S
C607        H612   1.083       .  S
C607        C608   1.373       .  D
C613        C614   1.544       .  S
C613        C619   1.537       .  S
C613        C617   1.540       .  S
C613        C778   1.527       .  S
C614        H621   1.082       .  S
C614        C615   1.362       .  D
C615        C616   1.531       .  S
C616        C620   1.532   1_565  S
C616        C618   1.545       .  S
C616        H622   1.102       .  S
C617        H623   1.083       .  S
C617        C618   1.372       .  D
C619        H624   1.086   1_565  S
C619        C620   1.362   1_565  D
C620        C629   1.482       .  S
C625        C626   1.406   1_455  A
C625        C630   1.393   1_455  A
C625        H635   1.082       .  S
C626        C631   1.484       .  S
C626        C627   1.406       .  A
C627        C628   1.399       .  A
C627        H632   1.083       .  S
C628        C629   1.405       .  A
C628        H633   1.082       .  S
C629        C630   1.403       .  A
C630        H634   1.083   1_655  S
C631        C636   1.405       .  A
C631        C640   1.405   1_655  A
C636        C637   1.397       .  A
C636        H641   1.080       .  S
C637        C638   1.404       .  A
C637        H642   1.083       .  S
C638        C639   1.405   1_655  A
C639        C640   1.395       .  A
C639        H643   1.083       .  S
C640        H644   1.083       .  S
C645        C646   1.404       .  A
C645        C650   1.403       .  A
C645        H655   1.083       .  S
C646        C651   1.476       .  S
C646        C647   1.401       .  A
C647        C648   1.392       .  A
C647        H652   1.083       .  S
C648        C649   1.405       .  A
C648        H653   1.083       .  S
C649        C650   1.406       .  A
C650        H654   1.083       .  S
C651        C656   1.402       .  A
C651        C660   1.402       .  A
C656        C657   1.399       .  A
C656        H661   1.083       .  S
C657        C658   1.408       .  A
C657        H662   1.083       .  S
C658        C659   1.406       .  A
C659        C660   1.397       .  A
C659        H663   1.083       .  S
C660        H664   1.082       .  S
C665        C666   1.407       .  A
C665        C670   1.401       .  A
C665        H675   1.083       .  S
C666        C671   1.488       .  S
C666        C667   1.404       .  A
C667        C668   1.396       .  A
C667        H672   1.080       .  S
C668        C669   1.405       .  A
C668        H673   1.083       .  S
C669        C670   1.406       .  A
C670        H674   1.083       .  S
C671        C676   1.406       .  A
C671        C680   1.408       .  A
C676        C677   1.397       .  A
C676        H681   1.083       .  S
C677        C678   1.403       .  A
C677        H682   1.083       .  S
C678        C679   1.403       .  A
C679        C680   1.399       .  A
C679        H683   1.083       .  S
C680        H684   1.083       .  S
C685        C690   1.395       .  A
C685        H695   1.083       .  S
C686        C691   1.486       .  S
C686        C687   1.405       .  A
C687        C688   1.397       .  A
C687        H692   1.080       .  S
C688        C689   1.406       .  A
C688        H693   1.083       .  S
C690        H694   1.083       .  S
C691        C696   1.406       .  A
C691        C700   1.409       .  A
C696        C697   1.392       .  A
C697        C698   1.402       .  A
C698        C699   1.403       .  A
C699        C700   1.401       .  A
C699        H703   1.083       .  S
C700        H704   1.083       .  S
C705        H715   1.082       .  S
C706        C711   1.494       .  S
C706        C707   1.408       .  A
C707        C708   1.401       .  A
C707        H712   1.083       .  S
C708        C709   1.409       .  A
C708        H713   1.078       .  S
C709        C710   1.410       .  A
C711        C716   1.409       .  A
C711        C720   1.409       .  A
C717        H722   1.083       .  S
C718        C719   1.405       .  A
C719        C720   1.399       .  A
C719        H723   1.083       .  S
C720        H724   1.082       .  S
C725        C726   1.406       .  A
C725        C730   1.396       .  A
C725        H735   1.082       .  S
C726        C731   1.498       .  S
C726        C727   1.410       .  A
C727        C728   1.403       .  A
C727        H732   1.082       .  S
C728        C729   1.409       .  A
C728        H733   1.078       .  S
C729        C730   1.409       .  A
C730        H734   1.084       .  S
C731        C736   1.411       .  A
C731        C740   1.408       .  A
C736        C737   1.401       .  A
C736        H741   1.082       .  S
C737        C738   1.405       .  A
C737        H742   1.083       .  S
C738        C739   1.406       .  A
C739        C740   1.399       .  A
C739        H743   1.083       .  S
C740        H744   1.082       .  S
C745        C746   1.406       .  A
C745        C750   1.395       .  A
C745        H755   1.082       .  S
C746        C751   1.487       .  S
C747        C748   1.401       .  A
C747        H752   1.083       .  S
C748        H753   1.083       .  S
C749        C750   1.403       .  A
C750        H754   1.083       .  S
C751        C756   1.404       .  A
C751        C760   1.408       .  A
C756        C757   1.392       .  A
C756        H761   1.083       .  S
C757        C758   1.406       .  A
C757        H762   1.082       .  S
C758        C759   1.405       .  A
C759        C760   1.403       .  A
C759        H763   1.083       .  S
C760        H764   1.083       .  S
C765        C766   1.410       .  A
C765        C770   1.400       .  A
C765        H775   1.082       .  S
C766        C771   1.490       .  S
C767        C768   1.394       .  A
C767        H772   1.082       .  S
C768        H773   1.083       .  S
C769        C770   1.404       .  A
C770        H774   1.083       .  S
C771        C776   1.406       .  A
C771        C780   1.406       .  A
C776        C777   1.399       .  A
C776        H781   1.083       .  S
C777        C778   1.410       .  A
C777        H782   1.078       .  S
C778        C779   1.407       .  A
C779        C780   1.394       .  A
C779        H783   1.084   1_655  S
C785        C790   1.396       .  A
C785        H795   1.083       .  S
C786        C791   1.485       .  S
C786        C787   1.405       .  A
C787        C788   1.397       .  A
C787        H792   1.083       .  S
C788        C789   1.406       .  A
C788        H793   1.083       .  S
C790        H794   1.083       .  S
C791        C800   1.404       .  A
C796        C797   1.395       .  A
C796        H801   1.083       .  S
C797        H802   1.076       .  S
C798        C799   1.409       .  A
C799        C800   1.398       .  A
C799        H803   1.083       .  S
C800        H804   1.083       .  S
C805        C806   1.408       .  A
C805        C810   1.403       .  A
C805        H815   1.083       .  S
C806        C811   1.485       .  S
C806        C807   1.403   1_556  A
C807        C808   1.391       .  A
C807        H812   1.083       .  S
C808        C809   1.405   1_554  A
C808        H813   1.083       .  S
C809        C810   1.404       .  A
C810        H814   1.083       .  S
C811        C816   1.406       .  A
C811        C820   1.405       .  A
C816        C817   1.401       .  A
C816        H821   1.083       .  S
C817        C818   1.407       .  A
C817        H822   1.083       .  S
C818        C819   1.404       .  A
C819        C820   1.394       .  A
C819        H823   1.083       .  S
C820        H824   1.082       .  S
C825        C826   1.406       .  A
C825        C830   1.396       .  A
C825        H835   1.082       .  S
C826        C831   1.489       .  S
C826        C827   1.408       .  A
C827        C828   1.398       .  A
C827        H832   1.083       .  S
C828        C829   1.405       .  A
C828        H833   1.083       .  S
C829        C830   1.405       .  A
C830        H834   1.083       .  S
C831        C836   1.406       .  A
C831        C840   1.404       .  A
C836        C837   1.396       .  A
C836        H841   1.082       .  S
C837        C838   1.408       .  A
C837        H842   1.083       .  S
C838        C839   1.411       .  A
C839        C840   1.397       .  A
C839        H843   1.076       .  S
C840        H844   1.083       .  S
C845        C846   1.404       .  A
C845        C850   1.398       .  A
C845        H855   1.083       .  S
C846        C851   1.485       .  S
C846        C847   1.403       .  A
C847        C848   1.398       .  A
C847        H852   1.083       .  S
C848        C849   1.410       .  A
C848        H853   1.083       .  S
C849        C850   1.411       .  A
C850        H854   1.077       .  S
C851        C856   1.406       .  A
C851        C860   1.406       .  A
C856        C857   1.397       .  A
C856        H861   1.083       .  S
C857        C858   1.405       .  A
C857        H862   1.083       .  S
C858        C859   1.407       .  A
C859        C860   1.399       .  A
C859        H863   1.083       .  S
C860        H864   1.083       .  S
C865        C866   1.406   1_455  A
C865        C870   1.397   1_455  A
C866        C871   1.490       .  S
C866        C867   1.405       .  A
C867        C868   1.397       .  A
C867        H872   1.082       .  S
C868        C869   1.410       .  A
C868        H873   1.081       .  S
C869        C870   1.409       .  A
C870        H874   1.082   1_655  S
C871        C876   1.408   1_655  A
C871        C880   1.408       .  A
C876        C877   1.397       .  A
C876        H881   1.082       .  S
C877        C878   1.403   1_455  A
C877        H882   1.083       .  S
C878        C879   1.405       .  A
C879        C880   1.399       .  A
C879        H883   1.083       .  S
C880        H884   1.083       .  S
C885        C886   1.406   1_455  A
C885        C890   1.398       .  A
C885        H895   1.083       .  S
C886        C891   1.488       .  S
C886        C887   1.407       .  A
C887        C888   1.398       .  A
C887        H892   1.082       .  S
C888        C889   1.404       .  A
C888        H893   1.083       .  S
C889        C890   1.405   1_655  A
C891        C896   1.404   1_556  A
C891        C900   1.408       .  A
C896        C897   1.394       .  A
C896        H901   1.083       .  S
C897        C898   1.407   1_554  A
C897        H902   1.082       .  S
C898        C899   1.403       .  A
C899        C900   1.401       .  A
C899        H903   1.083       .  S
C900        H904   1.083       .  S
C905        C906   1.407       .  A
C905        C910   1.400       .  A
C905        H915   1.083       .  S
C906        C911   1.491       .  S
C906        C907   1.404       .  A
C907        C908   1.396       .  A
C907        H912   1.083       .  S
C908        C909   1.410       .  A
C908        H913   1.083       .  S
C909        C910   1.409       .  A
C910        H914   1.077       .  S
C911        C916   1.407       .  A
C911        C920   1.408       .  A
C916        C917   1.397       .  A
C916        H921   1.083       .  S
C917        C918   1.406       .  A
C917        H922   1.083       .  S
C918        C919   1.406       .  A
C919        C920   1.401       .  A
C919        H923   1.083       .  S
C920        H924   1.083       .  S
C925        C926   1.404       .  A
C925        C930   1.399       .  A
C925        H935   1.083       .  S
C926        C931   1.478       .  S
C926        C927   1.402       .  A
C927        C928   1.396       .  A
C927        H932   1.083       .  S
C928        C929   1.405       .  A
C928        H933   1.082       .  S
C929        C930   1.407       .  A
C930        H934   1.083       .  S
C931        C936   1.403       .  A
C931        C940   1.406       .  A
C936        C937   1.397       .  A
C936        H941   1.083       .  S
C937        C938   1.404       .  A
C937        H942   1.083       .  S
C938        C939   1.403       .  A
C939        C940   1.399       .  A
C939        H943   1.083       .  S
C940        H944   1.083       .  S
