geometry optimzed in LAMMPS
_audit_creation_date              2020-11-30 
_audit_creation_method            'lammps2cif' 
_symmetry_space_group_name_H-M    'P1' 
_symmetry_Int_Tables_number       1 
_symmetry_cell_setting            triclinic 
loop_ 
_symmetry_equiv_pos_as_xyz 
  x,y,z 
_cell_length_a                    57.301567990389614 
_cell_length_b                    56.82888405595376 
_cell_length_c                    57.185281594632706 
_cell_angle_alpha                 90.37720079445089 
_cell_angle_beta                  89.86339583765665 
_cell_angle_gamma                 89.7173290862808 
loop_ 
_atom_site_label 
_atom_site_type_symbol 
_atom_site_fract_x 
_atom_site_fract_y 
_atom_site_fract_z 
_atom_site_charge 
C1          C  0.75358176  0.49480958  0.99983157    -0.02690
C2          C  0.50300555  0.75021232  0.99668597    -0.02690
C3          C  0.99834568  0.49638213  0.74922887    -0.02690
C4          C  0.49782548  0.00033074  0.74407438    -0.02690
C5          C  0.74928732  0.00079082  0.49936029    -0.02690
C6          C  0.99672686  0.74811194  0.49989862    -0.02690
C7          C  0.24996578  0.50346007  0.99754135    -0.02690
O8          O  0.97763970  0.55021085  0.02598197    -0.73140
O9          O  0.02424675  0.54535673  0.97435509    -0.74130
O10         O  0.97539606  0.54923105  0.97631356    -0.62740
O11         O  0.02686746  0.54514818  0.02412245    -0.71160
O12         O  0.02385659  0.50615852  0.02350299    -0.70710
O13         O  0.97204881  0.51031309  0.97807846    -0.61960
O14         O  0.02132087  0.50635377  0.97479096    -0.74470
O15         O  0.97448288  0.51124975  0.02709673    -0.73250
Cu16       Cu  0.00116081  0.54889234  0.00023469     1.04560
Cu17       Cu  0.99779736  0.50716122  0.00088929     1.04330
C18         C  0.96855467  0.53171254  0.03447806     0.93050
C19         C  0.03015510  0.52516011  0.96650148     0.92190
C20         C  0.96565440  0.53008924  0.96985498     0.84340
C21         C  0.03363625  0.52481802  0.03091331     0.90610
N22         N  0.89445034  0.51103782  0.84325543    -0.27490
N23         N  0.91340144  0.52195209  0.85082301    -0.35350
C24         C  0.92997952  0.52082115  0.83431189     0.00850
C25         C  0.92134733  0.50858235  0.81542815     0.06870
C26         C  0.89872866  0.50257762  0.82151979    -0.06220
H27         H  0.94745989  0.52760460  0.83634643     0.07540
H28         H  0.88658321  0.49233413  0.81124369     0.08740
Cu29       Cu  0.91958450  0.53427665  0.88427294     0.44170
Cu30       Cu  0.86454678  0.50650345  0.86379018     0.41990
Cu31       Cu  0.88673911  0.50128491  0.92219258     0.43880
N32         N  0.92834958  0.53185401  0.91911614    -0.34880
N33         N  0.91671188  0.51747406  0.93280632    -0.29130
C34         C  0.92750186  0.51591731  0.95347592    -0.05230
C35         C  0.94681145  0.53026225  0.95283688     0.06980
C36         C  0.94700006  0.54011530  0.93078227     0.00780
H37         H  0.92213124  0.50456647  0.96760619     0.08430
H38         H  0.96060867  0.55077026  0.92317605     0.07510
N39         N  0.85209747  0.49977899  0.91394949    -0.36330
N40         N  0.84291765  0.50281162  0.89299799    -0.28510
C41         C  0.81942713  0.50423728  0.89532509    -0.03750
C42         C  0.81412636  0.50213773  0.91894163     0.04860
C43         C  0.83518830  0.49927968  0.93000348     0.02960
H44         H  0.80731853  0.50715454  0.88114713     0.08060
H45         H  0.83810454  0.49790379  0.94863346     0.06900
C46         C  0.00087618  0.49767211  0.24956079    -0.02690
N47         N  0.89793197  0.51463181  0.15567868    -0.27490
N48         N  0.91310503  0.53175660  0.15214893    -0.35350
C49         C  0.92863457  0.53226001  0.16956490     0.00850
C50         C  0.92432085  0.51377079  0.18437502     0.06870
C51         C  0.90442620  0.50306129  0.17526086    -0.06220
H52         H  0.94449331  0.54251654  0.16908452     0.07540
H53         H  0.89676801  0.48673049  0.18103862     0.08740
Cu54       Cu  0.92203476  0.54471380  0.11991842     0.44170
Cu55       Cu  0.87077301  0.50704488  0.13160592     0.41990
Cu56       Cu  0.88162858  0.53944634  0.07825517     0.43880
N57         N  0.93227173  0.54189295  0.08551969    -0.34880
N58         N  0.91628962  0.53927449  0.06924120    -0.29130
C59         C  0.92672365  0.53462084  0.04865632    -0.05230
C60         C  0.95052085  0.53433114  0.05235033     0.06980
C61         C  0.95355580  0.53919050  0.07586086     0.00780
H62         H  0.91768702  0.53150385  0.03234141     0.08430
H63         H  0.96987288  0.54010827  0.08529697     0.07510
N64         N  0.84941586  0.52742758  0.08796034    -0.36330
N65         N  0.84586625  0.51180196  0.10461260    -0.28510
C66         C  0.82587509  0.50017432  0.09955093    -0.03750
C67         C  0.81651836  0.50945955  0.07903775     0.04860
C68         C  0.83172405  0.52704565  0.07279783     0.02960
H69         H  0.81982951  0.48477583  0.10873996     0.08060
H70         H  0.83205953  0.53593653  0.05611588     0.06900
N71         N  0.10486184  0.51448540  0.84229691    -0.27490
N72         N  0.08759681  0.52815659  0.84987648    -0.35350
C73         C  0.07028966  0.52808440  0.83419251     0.00850
C74         C  0.07618465  0.51319192  0.81596499     0.06870
C75         C  0.09840576  0.50492594  0.82152195    -0.06220
H76         H  0.05333646  0.53602780  0.83722310     0.07540
H77         H  0.10824790  0.49156176  0.81216704     0.08740
Cu78       Cu  0.08170669  0.53867012  0.88408738     0.44170
Cu79       Cu  0.13460923  0.50712472  0.86289080     0.41990
Cu80       Cu  0.11165507  0.50017396  0.92011907     0.43880
N81         N  0.06936666  0.53012751  0.91697349    -0.34880
N82         N  0.07981376  0.51364006  0.92931253    -0.29130
C83         C  0.06720645  0.50908158  0.94850635    -0.05230
C84         C  0.04789278  0.52355270  0.94828028     0.06980
C85         C  0.04973835  0.53685958  0.92817745     0.00780
H86         H  0.07214228  0.49672089  0.96194782     0.08430
H87         H  0.03747905  0.54988791  0.92187826     0.07510
N88         N  0.14655473  0.49830159  0.91297984    -0.36330
N89         N  0.15620552  0.50187732  0.89231261    -0.28510
C90         C  0.17966702  0.50281155  0.89527150    -0.03750
C91         C  0.18446653  0.49950013  0.91893911     0.04860
C92         C  0.16304860  0.49682703  0.92938514     0.02960
H93         H  0.19213059  0.50650830  0.88155949     0.08060
H94         H  0.15950660  0.49521814  0.94786386     0.06900
O95         O  0.46969758  0.52549990  0.00990913    -0.73140
O96         O  0.51855022  0.47577622  0.01508151    -0.74130
O97         O  0.51801435  0.52519793  0.01556863    -0.62740
O98         O  0.46936538  0.47641507  0.01001821    -0.71160
O99         O  0.47207548  0.47677965  0.97123069    -0.70710
O100        O  0.52411310  0.52361303  0.97714421    -0.61960
O101        O  0.52080641  0.47398718  0.97627436    -0.74470
O102        O  0.47514075  0.52700576  0.97143701    -0.73250
Cu103      Cu  0.49376021  0.50068046  0.01396427     1.04560
Cu104      Cu  0.49817641  0.50035087  0.97257433     1.04330
C105        C  0.46507840  0.53441109  0.99002329     0.93050
C106        C  0.52718241  0.46691060  0.99638759     0.92190
C107        C  0.52886500  0.53191413  0.99739155     0.84340
C108        C  0.46272989  0.46912908  0.99000243     0.90610
N109        N  0.65900680  0.60163955  0.99750529    -0.27490
N110        N  0.65019946  0.58164192  0.00505651    -0.35350
C111        C  0.66669678  0.56519853  0.00623305     0.00850
C112        C  0.68722596  0.57421174  0.99784068     0.06870
C113        C  0.68199821  0.59774445  0.99272745    -0.06220
H114        H  0.66334932  0.54710125  0.01085625     0.07540
H115        H  0.69368001  0.61061176  0.98531967     0.08740
Cu116      Cu  0.61608721  0.57270188  0.00659072     0.44170
Cu117      Cu  0.63659506  0.63153170  0.99521027     0.41990
Cu118      Cu  0.57807546  0.61320403  0.02052136     0.43880
N119        N  0.58176359  0.56457782  0.00493607    -0.34880
N120        N  0.56641847  0.58029170  0.01208475    -0.29130
C121        C  0.54489243  0.57142372  0.00978907    -0.05230
C122        C  0.54717991  0.54914605  0.00021655     0.06980
C123        C  0.57075746  0.54519545  0.99745431     0.00780
H124        H  0.52890091  0.58054241  0.01441414     0.08430
H125        H  0.57927421  0.52931557  0.99120989     0.07510
N126        N  0.58808053  0.64669359  0.01249635    -0.36330
N127        N  0.60712599  0.65382531  0.00141019    -0.28510
C128        C  0.60342781  0.67641814  0.99475668    -0.03750
C129        C  0.58123889  0.68329257  0.00228038     0.04860
C130        C  0.57233440  0.66406327  0.01339643     0.02960
H131        H  0.61548057  0.68669170  0.98447987     0.08060
H132        H  0.55478630  0.66212663  0.02008280     0.06900
C133        C  0.49935263  0.24900910  0.00006749    -0.02690
O134        O  0.51047416  0.97977851  0.02591245    -0.73140
O135        O  0.52298142  0.02714024  0.97698562    -0.74130
O136        O  0.52060974  0.97807675  0.97832978    -0.62740
O137        O  0.51264918  0.02940947  0.02477972    -0.71160
O138        O  0.55037915  0.02752689  0.03367068    -0.70710
O139        O  0.55881557  0.97705442  0.98517618    -0.61960
O140        O  0.56087669  0.02713209  0.98536017    -0.74470
O141        O  0.54843057  0.97800457  0.03378723    -0.73250
Cu142      Cu  0.51537757  0.00372403  0.00126630     1.04560
Cu143      Cu  0.55603142  0.00238260  0.00980931     1.04330
C144        C  0.52752895  0.97116953  0.03734911     0.93050
C145        C  0.54365528  0.03448059  0.97330187     0.92190
C146        C  0.54081836  0.96947091  0.97443234     0.84340
C147        C  0.53013082  0.03653188  0.03656187     0.90610
N148        N  0.50159166  0.90556820  0.84905060    -0.27490
N149        N  0.51183102  0.92472345  0.85735222    -0.35350
C150        C  0.51061098  0.94208330  0.84168939     0.00850
C151        C  0.49943813  0.93390727  0.82206130     0.06870
C152        C  0.49389925  0.91056304  0.82721021    -0.06220
H153        H  0.51838667  0.95924621  0.84404365     0.07540
H154        H  0.48573861  0.89796775  0.81560275     0.08740
Cu155      Cu  0.52851953  0.92869954  0.88872005     0.44170
Cu156      Cu  0.49912786  0.87383701  0.86878995     0.41990
Cu157      Cu  0.50960570  0.89067964  0.92944626     0.43880
N158        N  0.53667706  0.93407757  0.92310483    -0.34880
N159        N  0.52849103  0.91962987  0.93896702    -0.29130
C160        C  0.53179731  0.92894736  0.96026335    -0.05230
C161        C  0.54278041  0.95034487  0.95762419     0.06980
C162        C  0.54537322  0.95322133  0.93377587     0.00780
H163        H  0.52437549  0.92200051  0.97619490     0.08430
H164        H  0.55027688  0.96919605  0.92485632     0.07510
N165        N  0.49960860  0.85779985  0.91904378    -0.36330
N166        N  0.49766970  0.84985168  0.89736143    -0.28510
C167        C  0.49569206  0.82602780  0.89842980    -0.03750
C168        C  0.49621195  0.81930169  0.92193638     0.04860
C169        C  0.49855959  0.84002530  0.93413558     0.02960
H170        H  0.49479376  0.81445557  0.88337724     0.08060
H171        H  0.50082630  0.84219033  0.95261816     0.06900
C172        C  0.49945009  0.00056378  0.25093378    -0.02690
N173        N  0.50955267  0.89311964  0.15807099    -0.27490
N174        N  0.52286184  0.91074233  0.15123895    -0.35350
C175        C  0.52355552  0.92728036  0.16802253     0.00850
C176        C  0.50995344  0.92009343  0.18648691     0.06870
C177        C  0.50124170  0.89826639  0.17969822    -0.06220
H178        H  0.53188282  0.94420523  0.16613965     0.07540
H179        H  0.48888657  0.88761538  0.18920349     0.08740
Cu180      Cu  0.53334114  0.91625529  0.11737709     0.44170
Cu181      Cu  0.50140989  0.86530432  0.13500525     0.41990
Cu182      Cu  0.48666447  0.89520679  0.08244550     0.43880
N183        N  0.52541830  0.93008343  0.08528418    -0.34880
N184        N  0.50647187  0.92398739  0.07366156    -0.29130
C185        C  0.50434593  0.93770390  0.05478059    -0.05230
C186        C  0.52293065  0.95305103  0.05461071     0.06980
C187        C  0.53601946  0.94778707  0.07410724     0.00780
H188        H  0.49065343  0.93619894  0.04186625     0.08430
H189        H  0.55159754  0.95660995  0.08013411     0.07510
N190        N  0.48552120  0.85918203  0.08542906    -0.36330
N191        N  0.49362288  0.84746787  0.10359644    -0.28510
C192        C  0.49785277  0.82498089  0.09675916    -0.03750
C193        C  0.49193091  0.82269264  0.07321095     0.04860
C194        C  0.48388287  0.84469043  0.06695118     0.02960
H195        H  0.50628961  0.81186078  0.10749153     0.08060
H196        H  0.47973696  0.85043190  0.04943212     0.06900
N197        N  0.51382662  0.15196859  0.89637763    -0.27490
N198        N  0.53047411  0.14867685  0.91213047    -0.35350
C199        C  0.52994751  0.16631303  0.92776748     0.00850
C200        C  0.51142587  0.18103869  0.92284243     0.06870
C201        C  0.50166309  0.17157990  0.90257221    -0.06220
H202        H  0.54003236  0.16639889  0.94374756     0.07540
H203        H  0.48569298  0.17727560  0.89424216     0.08740
Cu204      Cu  0.54640710  0.11701678  0.92071174     0.44170
Cu205      Cu  0.50662097  0.12775934  0.86885772     0.41990
Cu206      Cu  0.52116280  0.07203899  0.89007747     0.43880
N207        N  0.54802529  0.08265089  0.93274825    -0.34880
N208        N  0.53801691  0.06602732  0.92022983    -0.29130
C209        C  0.53727732  0.04604366  0.93222067    -0.05230
C210        C  0.54726730  0.05004605  0.95361170     0.06980
C211        C  0.55390786  0.07352381  0.95367301     0.00780
H212        H  0.52808559  0.03040694  0.92660472     0.08430
H213        H  0.56008128  0.08367534  0.96846346     0.07510
N214        N  0.50916776  0.07630231  0.85743385    -0.36330
N215        N  0.50449325  0.09687480  0.84791732    -0.28510
C216        C  0.50001484  0.09300619  0.82497619    -0.03750
C217        C  0.50199713  0.06886057  0.82061596     0.04860
C218        C  0.50774477  0.05901668  0.84156832     0.02960
H219        H  0.49618929  0.10659716  0.81237779     0.08060
H220        H  0.51168470  0.04070581  0.84489879     0.06900
O221        O  0.03937881  0.47880062  0.52428432    -0.73140
O222        O  0.03464415  0.52919641  0.47593270    -0.74130
O223        O  0.03112216  0.52719439  0.52525693    -0.62740
O224        O  0.04344291  0.48036575  0.47484350    -0.71160
O225        O  0.00545203  0.47282939  0.47243882    -0.70710
O226        O  0.99286622  0.52219495  0.52133307    -0.61960
O227        O  0.99687716  0.52145909  0.47174297    -0.74470
O228        O  0.00115042  0.47286179  0.52128027    -0.73250
Cu229      Cu  0.03846833  0.50417755  0.50017127     1.04560
Cu230      Cu  0.99768513  0.49719196  0.49661997     1.04330
C231        C  0.02089803  0.46794855  0.53030654     0.93050
C232        C  0.01511256  0.53272511  0.46580101     0.92190
C233        C  0.01023939  0.53197591  0.53137779     0.84340
C234        C  0.02647709  0.46900671  0.46597347     0.90610
N235        N  0.00868057  0.60483498  0.65670746    -0.27490
N236        N  0.02224691  0.58843759  0.64732859    -0.35350
C237        C  0.02454438  0.57051317  0.66222847     0.00850
C238        C  0.01112559  0.57510088  0.68182298     0.06870
C239        C  0.00140598  0.59725146  0.67789278    -0.06220
H240        H  0.03275576  0.55388853  0.65775816     0.07540
H241        H  0.98841033  0.60609512  0.68856910     0.08740
Cu242      Cu  0.02709357  0.58453894  0.61187895     0.44170
Cu243      Cu  0.99823353  0.63380605  0.63658562     0.41990
Cu244      Cu  0.97600848  0.60690752  0.58451337     0.43880
N245        N  0.01339199  0.57072360  0.58148518    -0.34880
N246        N  0.99297510  0.57716616  0.57288723    -0.29130
C247        C  0.98818527  0.56396323  0.55392175    -0.05230
C248        C  0.00663393  0.54862832  0.55052542     0.06980
C249        C  0.02226655  0.55330913  0.56825012     0.00780
H250        H  0.97315445  0.56631538  0.54274914     0.08430
H251        H  0.03884542  0.54468969  0.57133068     0.07510
N252        N  0.98077498  0.64252071  0.58796179    -0.36330
N253        N  0.99066450  0.65288956  0.60615365    -0.28510
C254        C  0.99685790  0.67491562  0.59985615    -0.03750
C255        C  0.99049254  0.67816229  0.57662801     0.04860
C256        C  0.98029136  0.65734896  0.56986169     0.02960
H257        H  0.00641800  0.68708005  0.61081198     0.08420
H258        H  0.97467931  0.65263921  0.55240070     0.06900
O259        O  0.47668394  0.99804131  0.52544289    -0.73140
O260        O  0.52189715  0.99577753  0.47295598    -0.74130
O261        O  0.52576724  0.99640560  0.52192581    -0.62740
O262        O  0.47310877  0.99806120  0.47639404    -0.71160
O263        O  0.47693927  0.03684295  0.47348047    -0.70710
O264        O  0.52422199  0.03541102  0.52475747    -0.61960
O265        O  0.52617107  0.03458004  0.47505357    -0.74470
O266        O  0.47458973  0.03701124  0.52319672    -0.73250
Cu267      Cu  0.49930361  0.99572184  0.49922517     1.04560
Cu268      Cu  0.50052360  0.03742929  0.49916237     1.04330
C269        C  0.46794079  0.01760868  0.53217721     0.93050
C270        C  0.53151298  0.01463462  0.46597233     0.92190
C271        C  0.53302643  0.01569978  0.53076930     0.84340
C272        C  0.46731986  0.01764132  0.46719389     0.90610
N273        N  0.65877062  0.99054009  0.60537187    -0.27490
N274        N  0.64993512  0.98647065  0.58442570    -0.35350
C275        C  0.66721324  0.98353347  0.56889255     0.00850
C276        C  0.68834673  0.98579146  0.58019600     0.06870
C277        C  0.68238104  0.99033654  0.60350073    -0.06220
H278        H  0.66458667  0.98143394  0.55025855     0.07540
H279        H  0.69421900  0.99410417  0.61772736     0.08740
Cu280      Cu  0.61525765  0.98997450  0.57585097     0.44170
Cu281      Cu  0.63620579  0.99818839  0.63366934     0.41990
Cu282      Cu  0.58637503  0.03198310  0.61071307     0.43880
N283        N  0.58401587  0.00494933  0.56625769    -0.34880
N284        N  0.57443879  0.02256723  0.57804531    -0.29130
C285        C  0.55483803  0.02944437  0.56711069    -0.05230
C286        C  0.55200715  0.01516915  0.54768808     0.06980
C287        C  0.57073498  0.99983771  0.54763736     0.00780
H288        H  0.54299993  0.04295629  0.57343993     0.08430
H289        H  0.57457575  0.98617968  0.53491443     0.07510
N290        N  0.58937521  0.02100051  0.64481051    -0.36330
N291        N  0.60590398  0.00696308  0.65303729    -0.28510
C292        C  0.59827050  0.99785905  0.67346582    -0.03750
C293        C  0.57601180  0.00670188  0.67805993     0.04860
C294        C  0.57121681  0.02140871  0.65963209     0.02960
H295        H  0.60745756  0.98456105  0.68333740     0.08060
H296        H  0.55469616  0.02995102  0.65606064     0.06900
C297        C  0.24982947  0.99703284  0.49579536    -0.02690
O298        O  0.01987422  0.02806695  0.49699794    -0.73140
O299        O  0.97106129  0.97795150  0.49130777    -0.74130
O300        O  0.97067793  0.02766282  0.49046335    -0.62740
O301        O  0.02005834  0.97891845  0.49732974    -0.71160
O302        O  0.01364881  0.97777168  0.53569587    -0.70710
O303        O  0.96733933  0.02987550  0.52918264    -0.61960
O304        O  0.96483037  0.98050262  0.52962787    -0.74470
O305        O  0.01552513  0.02747806  0.53566637    -0.73250
Cu306      Cu  0.99553761  0.00311741  0.49259250     1.04560
Cu307      Cu  0.99013010  0.00389600  0.53387566     1.04330
C308        C  0.02557607  0.03523689  0.51741336     0.93050
C309        C  0.96009712  0.97161780  0.50969131     0.92190
C310        C  0.96160988  0.03677435  0.50880837     0.84340
C311        C  0.02465853  0.97074921  0.51750601     0.90610
N312        N  0.84042929  0.89387145  0.51456600    -0.27490
N313        N  0.84847099  0.90999341  0.52916521    -0.35350
C314        C  0.83297123  0.92768445  0.53097344     0.00850
C315        C  0.81483351  0.92362217  0.51556593     0.06870
C316        C  0.81998841  0.90169531  0.50570069    -0.06220
H317        H  0.83671885  0.94428762  0.53950717     0.07540
H318        H  0.81111620  0.89349687  0.49111989     0.08740
Cu319      Cu  0.88379689  0.91567936  0.53314191     0.44170
Cu320      Cu  0.86146643  0.86527578  0.50406696     0.41990
Cu321      Cu  0.91198149  0.89191705  0.48167452     0.43880
N322        N  0.91292557  0.93029255  0.51749809    -0.34880
N323        N  0.92155982  0.92296644  0.49724603    -0.29130
C324        C  0.93932106  0.93691110  0.49097976    -0.05230
C325        C  0.94195660  0.95377588  0.50817720     0.06980
C326        C  0.92499748  0.94915803  0.52471402     0.00780
H327        H  0.95021531  0.93419533  0.47570752     0.08430
H328        H  0.92167108  0.95876941  0.54078099     0.07510
N329        N  0.90956536  0.85623488  0.48568487    -0.36330
N330        N  0.89164303  0.84579406  0.49573576    -0.28510
C331        C  0.89813073  0.82361898  0.50135178    -0.03750
C332        C  0.92122624  0.82034117  0.49440799     0.04860
C333        C  0.92771403  0.84132483  0.48447866     0.02960
H334        H  0.88741885  0.81135137  0.51092494     0.08060
H335        H  0.94501765  0.84605360  0.47858770     0.06900
C336        C  0.99502200  0.24506820  0.49740089    -0.02690
N337        N  0.88750505  0.16024156  0.50789166    -0.27490
N338        N  0.90506644  0.15175025  0.52022700    -0.35350
C339        C  0.92325421  0.16638727  0.51885929     0.00850
C340        C  0.91725395  0.18491670  0.50463396     0.06870
C341        C  0.89434144  0.18061470  0.49802834    -0.06220
H342        H  0.94061494  0.16216816  0.52500957     0.07540
H343        H  0.88439273  0.19013767  0.48508657     0.08740
Cu344      Cu  0.90891237  0.11681323  0.52817705     0.44170
Cu345      Cu  0.85809450  0.13977939  0.50089250     0.41990
Cu346      Cu  0.88454843  0.08743715  0.47885970     0.43880
N347        N  0.92215792  0.08602077  0.51448469    -0.34880
N348        N  0.91496238  0.07690569  0.49446671    -0.29130
C349        C  0.92825607  0.05815661  0.48899951    -0.05230
C350        C  0.94441754  0.05543996  0.50659107     0.06980
C351        C  0.94017051  0.07330335  0.52246132     0.00780
H352        H  0.92553247  0.04669926  0.47407374     0.08430
H353        H  0.94959588  0.07696553  0.53843626     0.07510
N354        N  0.84939133  0.09045831  0.48491015    -0.36330
N355        N  0.83917266  0.10907117  0.49448980    -0.28510
C356        C  0.81737787  0.10300877  0.50113391    -0.03750
C357        C  0.81415721  0.07944681  0.49546897     0.04860
C358        C  0.83472583  0.07219774  0.48521787     0.02960
H359        H  0.80532999  0.11441739  0.51044361     0.08060
H360        H  0.83933633  0.05449302  0.47986477     0.06900
N361        N  0.09941441  0.84616993  0.50647542    -0.27490
N362        N  0.08075223  0.85419705  0.51779680    -0.35350
C363        C  0.06368637  0.83829427  0.51674554     0.00850
C364        C  0.07153349  0.81920388  0.50420349     0.06870
C365        C  0.09436014  0.82450627  0.49792606    -0.06220
H366        H  0.04632992  0.84090375  0.52382579     0.07540
H367        H  0.10610657  0.81375248  0.48751573     0.08740
Cu368      Cu  0.07453523  0.88748789  0.53050248     0.44170
Cu369      Cu  0.13002926  0.86621363  0.50211567     0.41990
Cu370      Cu  0.10963256  0.92620797  0.50352970     0.43880
N371        N  0.06375591  0.92158119  0.52594394    -0.34880
N372        N  0.07687198  0.93580529  0.51354766    -0.29130
C373        C  0.06510996  0.95567585  0.50919292    -0.05230
C374        C  0.04354008  0.95383480  0.51964413     0.06980
C375        C  0.04307173  0.93204581  0.53018630     0.00780
H376        H  0.07164439  0.97016638  0.49892585     0.08430
H377        H  0.02840908  0.92384303  0.53879334     0.07510
N378        N  0.14393071  0.91691221  0.50236277    -0.36330
N379        N  0.15264707  0.89535384  0.50157600    -0.28510
C380        C  0.17623330  0.89705659  0.50065704    -0.03750
C381        C  0.18201362  0.92086254  0.50124409     0.04860
C382        C  0.16109568  0.93264142  0.50230509     0.02960
H383        H  0.18813904  0.88229478  0.49916450     0.08060
H384        H  0.15836840  0.95145384  0.50225227     0.06900
N385        N  0.34188365  0.01373952  0.60319130    -0.27490
N386        N  0.35043425  0.02723133  0.58650009    -0.35350
C387        C  0.33518616  0.02828521  0.56880841     0.00850
C388        C  0.31628580  0.01422888  0.57396272     0.06870
C389        C  0.32098044  0.00537113  0.59608165    -0.06220
H390        H  0.33897591  0.03615622  0.55204918     0.07540
H391        H  0.31106835  0.99215604  0.60526400     0.08740
Cu392      Cu  0.38545367  0.03485224  0.58241610     0.44170
Cu393      Cu  0.36208663  0.00411311  0.63222169     0.41990
Cu394      Cu  0.41443296  0.98470302  0.60594736     0.43880
N395        N  0.41802679  0.02375036  0.57103456    -0.34880
N396        N  0.42731643  0.00380213  0.57837386    -0.29130
C397        C  0.44682952  0.99924865  0.56619660    -0.05230
C398        C  0.45004832  0.01719164  0.55041880     0.06980
C399        C  0.43150318  0.03251914  0.55386150     0.00780
H400        H  0.45779263  0.98389786  0.56857688     0.08430
H401        H  0.42739583  0.04805075  0.54380556     0.07510
N402        N  0.40944986  0.98422625  0.64143964    -0.36330
N403        N  0.39150502  0.99445076  0.65196580    -0.28510
C404        C  0.39786526  0.99994983  0.67407345    -0.03750
C405        C  0.42078968  0.99252541  0.67737889     0.04860
C406        C  0.42732428  0.98236000  0.65637048     0.02960
H407        H  0.38741207  0.01055088  0.68616199     0.08060
H408        H  0.44461078  0.97711809  0.65139620     0.06900
N409        N  0.99955201  0.33900969  0.60328434    -0.27490
N410        N  0.00185837  0.34782081  0.58208881    -0.35350
C411        C  0.00018742  0.33079368  0.56605656     0.00850
C412        C  0.99665575  0.30982766  0.57721003     0.06870
C413        C  0.99625811  0.31546630  0.60099724    -0.06220
H414        H  0.00109259  0.33378428  0.54758867     0.07540
H415        H  0.99349136  0.30351251  0.61536151     0.08740
Cu416      Cu  0.00710873  0.38205627  0.57337193     0.44170
Cu417      Cu  0.00122207  0.36141015  0.63288983     0.41990
Cu418      Cu  0.02799130  0.41894423  0.61439317     0.43880
N419        N  0.01635788  0.41539791  0.56465661    -0.34880
N420        N  0.02594569  0.42954775  0.58015727    -0.29130
C421        C  0.02997667  0.45050228  0.57016968    -0.05230
C422        C  0.02227156  0.44912629  0.54731367     0.06980
C423        C  0.01362230  0.42674368  0.54439284     0.00780
H424        H  0.03659520  0.46586419  0.57919301     0.08430
H425        H  0.00559427  0.41938295  0.52889380     0.07510
N426        N  0.01768798  0.41025008  0.64771376    -0.36330
N427        N  0.00681034  0.39100910  0.65479339    -0.28510
C428        C  0.99977957  0.39460677  0.67718121    -0.03750
C429        C  0.00683223  0.41697997  0.68412516     0.04860
C430        C  0.01807267  0.42612685  0.66505487     0.02960
H431        H  0.98974405  0.38224530  0.68735060     0.08060
H432        H  0.02502923  0.44368020  0.66339950     0.06900
N433        N  0.10124326  0.15123052  0.50749528    -0.27490
N434        N  0.08781470  0.14760449  0.52601188    -0.35350
C435        C  0.07205046  0.16484933  0.52789452     0.00850
C436        C  0.07404280  0.17931871  0.50884369     0.06870
C437        C  0.09315823  0.17059390  0.49638734    -0.06220
H438        H  0.05753855  0.16450842  0.54003286     0.07540
H439        H  0.09947767  0.17669179  0.47965742     0.08740
Cu440      Cu  0.07845030  0.11525622  0.53853549     0.44170
Cu441      Cu  0.12887627  0.12813543  0.49833845     0.41990
Cu442      Cu  0.11439535  0.07307229  0.52514431     0.43880
N443        N  0.06508914  0.08249097  0.53147482    -0.34880
N444        N  0.07975510  0.06592875  0.52479066    -0.29130
C445        C  0.06793130  0.04688023  0.51773424    -0.05230
C446        C  0.04450863  0.05187701  0.52028044     0.06980
C447        C  0.04316302  0.07450733  0.52925476     0.00780
H448        H  0.07578188  0.03060137  0.51162563     0.08430
H449        H  0.02754882  0.08449614  0.53336977     0.07510
N450        N  0.14754542  0.08340873  0.51839751    -0.36330
N451        N  0.15323950  0.10086648  0.50439632    -0.28510
C452        C  0.17496355  0.09644817  0.49595991    -0.03750
C453        C  0.18293467  0.07546475  0.50573074     0.04860
C454        C  0.16525848  0.06831519  0.52025700     0.02960
H455        H  0.18346003  0.10658810  0.48248086     0.08060
H456        H  0.16385954  0.05127909  0.52849216     0.06900
N457        N  0.65388080  0.00792112  0.39382693    -0.27490
N458        N  0.64547064  0.02260244  0.40975465    -0.35350
C459        C  0.66022274  0.02372957  0.42782982     0.00850
C460        C  0.67855751  0.00836443  0.42370078     0.06870
C461        C  0.67409523  0.99870541  0.40177804    -0.06220
H462        H  0.65658315  0.03311708  0.44396471     0.07540
H463        H  0.68379421  0.98478493  0.39310544     0.08740
Cu464      Cu  0.61068773  0.03129568  0.41213323     0.44170
Cu465      Cu  0.63409983  0.99880207  0.36475799     0.41990
Cu466      Cu  0.58227140  0.97849703  0.39047315     0.43880
N467        N  0.57921755  0.01925035  0.42457692    -0.34880
N468        N  0.57028186  0.99872508  0.41834706    -0.29130
C469        C  0.55165391  0.99433143  0.43184805    -0.05230
C470        C  0.54880579  0.01295257  0.44724657     0.06980
C471        C  0.56650768  0.02848276  0.44220687     0.00780
H472        H  0.54095873  0.97874348  0.43051390     0.08430
H473        H  0.57057132  0.04465322  0.45138556     0.07510
N474        N  0.58778491  0.97769128  0.35478317    -0.36330
N475        N  0.60492681  0.98971531  0.34521125    -0.28510
C476        C  0.59795350  0.99740114  0.32406982    -0.03750
C477        C  0.57547452  0.98923414  0.31995414     0.04860
C478        C  0.57015395  0.97604170  0.33952416     0.02960
H479        H  0.60743819  0.01009973  0.31379565     0.08060
H480        H  0.55313385  0.96920359  0.34398018     0.06900
N481        N  0.00303441  0.65366349  0.39211249    -0.27490
N482        N  0.01662447  0.64502378  0.40869163    -0.35350
C483        C  0.01654732  0.65955853  0.42719931     0.00850
C484        C  0.00222998  0.67833281  0.42236825     0.06870
C485        C  0.99396046  0.67430915  0.39988178    -0.06220
H486        H  0.02525850  0.65601623  0.44358357     0.07540
H487        H  0.98166610  0.68505662  0.39032844     0.08740
Cu488      Cu  0.02931226  0.61132190  0.41028119     0.44170
Cu489      Cu  0.99550959  0.63455026  0.36148258     0.41990
Cu490      Cu  0.98654593  0.57666342  0.38365043     0.43880
N491        N  0.02025322  0.57908695  0.42312927    -0.34880
N492        N  0.00239813  0.56730768  0.41453820    -0.29130
C493        C  0.99778546  0.54901394  0.42848366    -0.05230
C494        C  0.01361815  0.54942486  0.44664755     0.06980
C495        C  0.02769147  0.56862510  0.44275080     0.00780
H496        H  0.98414284  0.53626035  0.42546941     0.08430
H497        H  0.04156282  0.57510116  0.45382892     0.07510
N498        N  0.98373318  0.58488664  0.34872964    -0.36330
N499        N  0.98855414  0.60561383  0.33959599    -0.28510
C500        C  0.98977655  0.60311687  0.31604259    -0.03750
C501        C  0.98522050  0.57969342  0.31041118     0.04860
C502        C  0.98152881  0.56889916  0.33161483     0.02960
H503        H  0.99484293  0.61687854  0.30410802     0.08060
H504        H  0.97939157  0.55022818  0.33449242     0.06900
N505        N  0.60491843  0.34251769  0.99199555    -0.27490
N506        N  0.58596773  0.35111783  0.98196349    -0.35350
C507        C  0.56954697  0.33447252  0.98083428     0.00850
C508        C  0.57821046  0.31423792  0.99071529     0.06870
C509        C  0.60078052  0.31983206  0.99770801    -0.06220
H510        H  0.55188319  0.33749578  0.97493333     0.07540
H511        H  0.61272603  0.30869699  0.00726680     0.08740
Cu512      Cu  0.57928799  0.38624492  0.97687716     0.44170
Cu513      Cu  0.63359913  0.36431013  0.99934908     0.41990
Cu514      Cu  0.60924059  0.41993823  0.01881847     0.43880
N515        N  0.56679157  0.41784533  0.98939376    -0.34880
N516        N  0.57663589  0.42899596  0.00709295    -0.29130
C517        C  0.56362300  0.44786750  0.01287790    -0.05230
C518        C  0.54482911  0.44853712  0.99787827     0.06980
C519        C  0.54733969  0.42938815  0.98314105     0.00780
H520        H  0.56819363  0.46077125  0.02606743     0.08430
H521        H  0.53582897  0.42411413  0.96910213     0.07510
N522        N  0.64422310  0.41450517  0.01300134    -0.36330
N523        N  0.65365138  0.39476416  0.00489575    -0.28510
C524        C  0.67618700  0.39906098  0.99938268    -0.03750
C525        C  0.68074124  0.42258576  0.00425545     0.04860
C526        C  0.66014354  0.43170511  0.01280611     0.02960
H527        H  0.68803190  0.38638062  0.99155495     0.08060
H528        H  0.65661118  0.44987682  0.01740334     0.06900
N529        N  0.49396729  0.15890247  0.10874872    -0.27490
N530        N  0.48787332  0.14828838  0.08908938    -0.35350
C531        C  0.48612555  0.16407566  0.07192412     0.00850
C532        C  0.49142520  0.18593694  0.08084890     0.06870
C533        C  0.49647080  0.18214628  0.10435455    -0.06220
H534        H  0.48362446  0.15956201  0.05370830     0.07540
H535        H  0.50306586  0.19493114  0.11674317     0.08740
Cu536      Cu  0.49078609  0.11281241  0.08333726     0.44170
Cu537      Cu  0.50178501  0.13860972  0.13838621     0.41990
Cu538      Cu  0.53931180  0.09261983  0.11588261     0.43880
N539        N  0.51113636  0.08484591  0.07309263    -0.34880
N540        N  0.53066909  0.07894768  0.08381431    -0.29130
C541        C  0.54076051  0.06091417  0.07230769    -0.05230
C542        C  0.52674723  0.05538670  0.05350470     0.06980
C543        C  0.50816367  0.07083891  0.05443041     0.00780
H544        H  0.55645132  0.05187701  0.07782888     0.08430
H545        H  0.49364358  0.07193661  0.04241746     0.07510
N546        N  0.52667411  0.09326413  0.14942830    -0.36330
N547        N  0.51127625  0.10863246  0.15768669    -0.28510
C548        C  0.50194839  0.09975889  0.17750981    -0.03750
C549        C  0.51204319  0.07781677  0.18152803     0.04860
C550        C  0.52768120  0.07454544  0.16348933     0.02960
H551        H  0.48796334  0.10792866  0.18742622     0.08060
H552        H  0.53768172  0.05875226  0.15976733     0.06900
N553        N  0.34385998  0.61008801  0.00150337    -0.27490
N554        N  0.35392081  0.59145305  0.01082270    -0.35350
C555        C  0.33884471  0.57354286  0.01154072     0.00850
C556        C  0.31803312  0.58104095  0.00222520     0.06870
C557        C  0.32162614  0.60439752  0.99599119    -0.06220
H558        H  0.34321356  0.55586178  0.01697722     0.07540
H559        H  0.30942978  0.61589374  0.98720216     0.08740
Cu560      Cu  0.38909142  0.58848589  0.01487622     0.44170
Cu561      Cu  0.36430909  0.63987643  0.99454750     0.41990
Cu562      Cu  0.41541670  0.61610759  0.96527229     0.43880
N563        N  0.41876416  0.57641871  0.99910705    -0.34880
N564        N  0.42727092  0.58462333  0.97928522    -0.29130
C565        C  0.44520104  0.57074788  0.97246689    -0.05230
C566        C  0.44776029  0.55319736  0.98896351     0.06980
C567        C  0.43080387  0.55734262  0.00551830     0.00780
H568        H  0.45596036  0.57366304  0.95719478     0.08430
H569        H  0.42710137  0.54696686  0.02087620     0.07510
N570        N  0.41022492  0.65169525  0.97175826    -0.36330
N571        N  0.39390272  0.65996375  0.98603697    -0.28510
C572        C  0.40153212  0.68045102  0.99543795    -0.03750
C573        C  0.42350996  0.68541571  0.98623342     0.04860
C574        C  0.42785049  0.66708472  0.97074090     0.02960
H575        H  0.39285403  0.68970794  0.00959878     0.08060
H576        H  0.44436002  0.66333448  0.96223952     0.06900
N577        N  0.15523336  0.49847033  0.10466810    -0.27490
N578        N  0.14494110  0.48779381  0.08684650    -0.35350
C579        C  0.16010948  0.48547585  0.06915408     0.00850
C580        C  0.18081776  0.49622675  0.07514998     0.06870
C581        C  0.17727012  0.50404014  0.09807827    -0.06220
H582        H  0.15534801  0.47923045  0.05190384     0.07540
H583        H  0.18906482  0.51463684  0.10841321     0.08740
Cu584      Cu  0.10943440  0.48755624  0.08052111     0.44170
Cu585      Cu  0.13658482  0.50713671  0.13551581     0.41990
Cu586      Cu  0.08398587  0.53165516  0.11313197     0.43880
N587        N  0.08128728  0.50677374  0.06815101    -0.34880
N588        N  0.07351541  0.52542646  0.07963099    -0.29130
C589        C  0.05612042  0.53556914  0.06758484    -0.05230
C590        C  0.05275552  0.52246262  0.04752854     0.06980
C591        C  0.06889985  0.50428117  0.04839532     0.00780
H592        H  0.04560530  0.55018432  0.07382621     0.08430
H593        H  0.07122165  0.49015713  0.03581098     0.07510
N594        N  0.08778022  0.52160763  0.14716528    -0.36330
N595        N  0.10690118  0.51300618  0.15674626    -0.28510
C596        C  0.10193141  0.50758542  0.17929333    -0.03750
C597        C  0.07838727  0.51278291  0.18360923     0.04860
C598        C  0.07024890  0.52113643  0.16254088     0.02960
H599        H  0.11441049  0.50031667  0.19144946     0.08060
H600        H  0.05251995  0.52630523  0.15848485     0.06900
N601        N  0.99730342  0.34479261  0.39840531    -0.27490
N602        N  0.01093770  0.35054302  0.41613147    -0.35350
C603        C  0.01038587  0.33394597  0.43235556     0.00850
C604        C  0.99518111  0.31677594  0.42535959     0.06870
C605        C  0.98724301  0.32383891  0.40343062    -0.06220
H606        H  0.01936384  0.33509275  0.44895659     0.07540
H607        H  0.97477388  0.31485183  0.39241084     0.08740
Cu608      Cu  0.02574055  0.38205744  0.42295984     0.44170
Cu609      Cu  0.99456337  0.36746953  0.36945774     0.41990
Cu610      Cu  0.03355593  0.41992294  0.38144769     0.43880
N611        N  0.03178720  0.41596694  0.43199542    -0.34880
N612        N  0.03528037  0.43154103  0.41550410    -0.29130
C613        C  0.03511670  0.45320707  0.42511564    -0.05230
C614        C  0.03128785  0.45064645  0.44886049     0.06980
C615        C  0.02903236  0.42688520  0.45263662     0.00780
H616        H  0.03581593  0.46947306  0.41541882     0.08430
H617        H  0.02426734  0.41831715  0.46879532     0.07510
N618        N  0.02014247  0.40977145  0.34965322    -0.36330
N619        N  0.00353851  0.39412581  0.34551140    -0.28510
C620        C  0.99361299  0.39938595  0.32469205    -0.03750
C621        C  0.00492850  0.41888281  0.31551876     0.04860
C622        C  0.02181857  0.42443587  0.33163067     0.02960
H623        H  0.97825055  0.39090195  0.31771156     0.08060
H624        H  0.03220675  0.44029526  0.33188177     0.06900
N625        N  0.34306109  0.00047909  0.39082110    -0.27490
N626        N  0.35316178  0.99458547  0.41068138    -0.35350
C627        C  0.33702004  0.99163448  0.42721640     0.00850
C628        C  0.31543261  0.99556157  0.41755224     0.06870
C629        C  0.31971548  0.00120391  0.39430728    -0.06220
H630        H  0.34081837  0.98756091  0.44527403     0.07540
H631        H  0.30698301  0.00584099  0.38116418     0.08740
Cu632      Cu  0.38810561  0.99437960  0.41706317     0.44170
Cu633      Cu  0.36341095  0.00855837  0.36168383     0.41990
Cu634      Cu  0.41842139  0.03473076  0.38414372     0.43880
N635        N  0.41888756  0.00806222  0.42832368    -0.34880
N636        N  0.42945668  0.02521754  0.41715025    -0.29130
C637        C  0.44827532  0.03186236  0.42951771    -0.05230
C638        C  0.44936529  0.01790629  0.44923829     0.06980
C639        C  0.43055749  0.00300944  0.44792600     0.00780
H640        H  0.46072211  0.04500275  0.42406768     0.08430
H641        H  0.42555262  0.98968022  0.46037152     0.07510
N642        N  0.41129071  0.02724934  0.34944735    -0.36330
N643        N  0.39256944  0.01643742  0.34119501    -0.28510
C644        C  0.39697735  0.00947948  0.31898328    -0.03750
C645        C  0.41938706  0.01647747  0.31317295     0.04860
C646        C  0.42777861  0.02767088  0.33281823     0.02960
H647        H  0.38540191  0.99881918  0.30845997     0.08060
H648        H  0.44538692  0.03380172  0.33559496     0.06900
N649        N  0.39214910  0.34455202  0.98771616    -0.27490
N650        N  0.40886989  0.35385469  0.97480562    -0.35350
C651        C  0.42719070  0.33913755  0.97387808     0.00850
C652        C  0.42243195  0.31963155  0.98727404     0.06870
C653        C  0.39986020  0.32350502  0.99571027    -0.06220
H654        H  0.44378899  0.34343237  0.96595425     0.07540
H655        H  0.39050071  0.31268340  0.00804076     0.08740
Cu656      Cu  0.41148189  0.38907472  0.96706720     0.44170
Cu657      Cu  0.36179407  0.36407174  0.99635148     0.41990
Cu658      Cu  0.38667491  0.41590847  0.01790343     0.43880
N659        N  0.42270982  0.42094561  0.98007037    -0.34880
N660        N  0.41499032  0.42933589  0.00027282    -0.29130
C661        C  0.42760907  0.44818535  0.00631209    -0.05230
C662        C  0.44404326  0.45182842  0.98907395     0.06980
C663        C  0.44053595  0.43430546  0.97261834     0.00780
H664        H  0.42511264  0.45835958  0.02218898     0.08430
H665        H  0.45100755  0.43065453  0.95723577     0.07510
N666        N  0.35120673  0.41071646  0.01808157    -0.36330
N667        N  0.34114348  0.39320517  0.00673539    -0.28510
C668        C  0.31900982  0.39985431  0.00144188    -0.03750
C669        C  0.31521696  0.42254669  0.01023028     0.04860
C670        C  0.33594947  0.42839582  0.02100888     0.02960
H671        H  0.30745131  0.39002087  0.99013378     0.08060
H672        H  0.34071470  0.44571671  0.02730624     0.06900
C673        C  0.01385827  0.20413410  0.50579789    -0.02050
C674        C  0.01685293  0.22817632  0.49911913     0.07630
C675        C  0.04072228  0.23610246  0.49783817    -0.02160
C676        C  0.05956480  0.21985369  0.49913917    -0.02160
C677        C  0.05524730  0.19570775  0.50152607     0.07760
C678        C  0.03206024  0.18791770  0.50302323    -0.02360
Br679      Br  0.02462179  0.15476010  0.50156104    -0.00910
Br680      Br  0.98831536  0.19380642  0.52582825    -0.00980
Br681      Br  0.09152180  0.23064023  0.49924041    -0.00940
Br682      Br  0.04920418  0.26887785  0.49743146    -0.00920
C683        C  0.97280935  0.20733290  0.47696097    -0.02050
C684        C  0.97296861  0.23042823  0.48758938     0.07630
C685        C  0.95026577  0.23982554  0.48817312    -0.02160
C686        C  0.93198141  0.22558806  0.49619279    -0.02160
C687        C  0.93424620  0.20113973  0.49393456     0.07760
C688        C  0.95357689  0.19233587  0.48128927    -0.02360
Br689      Br  0.95371361  0.16006234  0.47036008    -0.00910
Br690      Br  0.99562033  0.19563093  0.45509936    -0.00980
Br691      Br  0.90344809  0.23974412  0.50715677    -0.00940
Br692      Br  0.94155972  0.25818246  0.46131073    -0.00920
C693        C  0.00904693  0.25488015  0.54197693    -0.02050
C694        C  0.99103010  0.25632124  0.52378158     0.07630
C695        C  0.97163569  0.27181390  0.53089428    -0.02160
C696        C  0.97189780  0.28415939  0.55263108    -0.02160
C697        C  0.99279710  0.28736415  0.56451772     0.07760
C698        C  0.01153929  0.27284667  0.55893533    -0.02360
Br699      Br  0.04092988  0.27778145  0.57490668    -0.00910
Br700      Br  0.02794697  0.22804878  0.55103172    -0.00980
Br701      Br  0.94474035  0.30068226  0.56502951    -0.00940
Br702      Br  0.94715333  0.28489570  0.51184261    -0.00920
C703        C  0.00519541  0.25917158  0.45403871    -0.02050
C704        C  0.99909373  0.26467039  0.47800208     0.07630
C705        C  0.99254648  0.28852331  0.48206780    -0.02160
C706        C  0.98401784  0.30246380  0.46387265    -0.02160
C707        C  0.98938135  0.29673490  0.44062330     0.07760
C708        C  0.99934401  0.27474170  0.43566803    -0.02360
Br709      Br  0.00713940  0.26725949  0.40350228    -0.00910
Br710      Br  0.03035892  0.23793330  0.44573721    -0.00980
Br711      Br  0.96798572  0.33170633  0.47099625    -0.00940
Br712      Br  0.00576636  0.30678512  0.50717383    -0.00920
C713        C  0.20744479  0.01692524  0.49493858    -0.02050
C714        C  0.23240194  0.01900547  0.49742593     0.07630
C715        C  0.24057709  0.04282083  0.50175059    -0.02160
C716        C  0.22458139  0.06189010  0.50382126    -0.02160
C717        C  0.20121149  0.05886668  0.49757090     0.07760
C718        C  0.19389272  0.03672150  0.48990344    -0.02360
Br719      Br  0.16348939  0.03293893  0.47565976    -0.00910
Br720      Br  0.18805822  0.99240071  0.50796811    -0.00980
Br721      Br  0.23437314  0.09246195  0.51489396    -0.00940
Br722      Br  0.27301719  0.05162581  0.50323039    -0.00920
C723        C  0.22189479  0.96542563  0.47640746    -0.02050
C724        C  0.23564526  0.97269107  0.49652523     0.07630
C725        C  0.23577613  0.95601085  0.51579544    -0.02160
C726        C  0.21884654  0.93793792  0.51693596    -0.02160
C727        C  0.20449278  0.93304885  0.49784985     0.07760
C728        C  0.20783215  0.94513016  0.47699531    -0.02360
Br729      Br  0.19039135  0.93479450  0.44976776    -0.00910
Br730      Br  0.21775057  0.98373709  0.44831053    -0.00980
Br731      Br  0.21443682  0.91969565  0.54506202    -0.00940
Br732      Br  0.25972064  0.95275736  0.53958023    -0.00920
C733        C  0.29278637  0.99891789  0.51499247    -0.02050
C734        C  0.26758515  0.00007713  0.51724067     0.07630
C735        C  0.25926591  0.00579161  0.54064013    -0.02160
C736        C  0.27501283  0.01027336  0.55928366    -0.02160
C737        C  0.29893103  0.00610164  0.55640111     0.07760
C738        C  0.30700392  0.99762303  0.53486853    -0.02360
Br739      Br  0.33837606  0.98491712  0.53224829    -0.00910
Br740      Br  0.31138138  0.00808570  0.48815945    -0.00980
Br741      Br  0.26401529  0.02206406  0.58915587    -0.00940
Br742      Br  0.22672160  0.00660134  0.54935785    -0.00920
C743        C  0.26347988  0.01476308  0.45387462    -0.02050
C744        C  0.26351192  0.99622269  0.47140853     0.07630
C745        C  0.27657674  0.97524905  0.46495031    -0.02160
C746        C  0.28943663  0.97405460  0.44400157    -0.02160
C747        C  0.29352970  0.99438101  0.43112171     0.07760
C748        C  0.28023428  0.01457254  0.43566471    -0.02360
Br749      Br  0.28590675  0.04255450  0.41738134    -0.00910
Br750      Br  0.23973755  0.03880124  0.44923193    -0.00980
Br751      Br  0.30382776  0.94482210  0.43357439    -0.00940
Br752      Br  0.28177658  0.94862977  0.48517142    -0.00920
C753        C  0.50895361  0.04538863  0.23948175    -0.02050
C754        C  0.50379720  0.02130687  0.23230092     0.07630
C755        C  0.50278265  0.01796781  0.20715461    -0.02160
C756        C  0.50006783  0.03725180  0.19210958    -0.02160
C757        C  0.50645449  0.05982329  0.19937310     0.07760
C758        C  0.51168356  0.06368539  0.22290441    -0.02360
Br759      Br  0.52256209  0.09465760  0.23212833    -0.00910
Br760      Br  0.51169298  0.05624909  0.27122554    -0.00980
Br761      Br  0.48807102  0.03246611  0.16080428    -0.00940
Br762      Br  0.51465339  0.99115813  0.18969478    -0.00920
C763        C  0.48088566  0.96776546  0.22286539    -0.02050
C764        C  0.49970580  0.97505111  0.23825907     0.07630
C765        C  0.51816896  0.95755685  0.24073091    -0.02160
C766        C  0.52148791  0.93989536  0.22354991    -0.02160
C767        C  0.50420279  0.93511189  0.20706908     0.07760
C768        C  0.48310282  0.94759466  0.20817097    -0.02360
Br769      Br  0.45851457  0.93882276  0.18665293    -0.00910
Br770      Br  0.45254489  0.98554638  0.21807538    -0.00980
Br771      Br  0.55005642  0.92149062  0.22250036    -0.00940
Br772      Br  0.53580135  0.95075769  0.26892123    -0.00920
C773        C  0.44597363  0.98807088  0.29314084    -0.02050
C774        C  0.43402822  0.00951643  0.29294697     0.07630
C775        C  0.43927245  0.02608630  0.27590226    -0.02160
C776        C  0.45804943  0.02244446  0.26012623    -0.02160
C777        C  0.47426626  0.00286181  0.26325081     0.07760
C778        C  0.46590020  0.98460250  0.27880920    -0.02360
Br779      Br  0.48160957  0.95520534  0.28425780    -0.00910
Br780      Br  0.43643649  0.96464708  0.31577325    -0.00980
Br781      Br  0.45613459  0.04305667  0.23327532    -0.00940
Br782      Br  0.41991505  0.05414885  0.27472851    -0.00920
C783        C  0.51692255  0.00711501  0.29479899    -0.02050
C784        C  0.52016309  0.00285978  0.26981226     0.07630
C785        C  0.54437868  0.00224467  0.26238922    -0.02160
C786        C  0.56271758  0.99858726  0.27865462    -0.02160
C787        C  0.55798109  0.99793197  0.30267350     0.07760
C788        C  0.53587437  0.00513676  0.31051543    -0.02360
Br789      Br  0.53277510  0.01557355  0.34297458    -0.00910
Br790      Br  0.48949110  0.02079744  0.30982861    -0.00980
Br791      Br  0.59402678  0.99146867  0.26778284    -0.00940
Br792      Br  0.55427478  0.00370354  0.23018780    -0.00920
C793        C  0.47975799  0.23848897  0.04220746    -0.02050
C794        C  0.49852775  0.23616595  0.02505938     0.07630
C795        C  0.51773156  0.22111468  0.03232952    -0.02160
C796        C  0.51656899  0.20760411  0.05299326    -0.02160
C797        C  0.49597260  0.20671852  0.06600032     0.07760
C798        C  0.47797052  0.22252696  0.06109318    -0.02360
Br799      Br  0.45039718  0.22153559  0.08071998    -0.00910
Br800      Br  0.45771278  0.26438566  0.04496309    -0.00980
Br801      Br  0.54251133  0.18794097  0.06279970    -0.00940
Br802      Br  0.54515954  0.21470585  0.01384314    -0.00920
C803        C  0.49534532  0.23777856  0.95485033    -0.02050
C804        C  0.49651072  0.23018855  0.97901942     0.07630
C805        C  0.49366260  0.20490638  0.98208066    -0.02160
C806        C  0.49637744  0.18918663  0.96296899    -0.02160
C807        C  0.50093151  0.19748341  0.94044943     0.07760
C808        C  0.49804711  0.22148236  0.93601686    -0.02360
Br809      Br  0.50074331  0.23206382  0.90405117    -0.00910
Br810      Br  0.49329641  0.27029960  0.94558055    -0.00980
Br811      Br  0.49216151  0.15542858  0.96678200    -0.00940
Br812      Br  0.48160013  0.18917070  0.00968564    -0.00920
C813        C  0.54110952  0.26036380  0.98017031    -0.02050
C814        C  0.52438148  0.26199379  0.99935192     0.07630
C815        C  0.53198459  0.27680920  0.01870885    -0.02160
C816        C  0.55216565  0.29109171  0.01692778    -0.02160
C817        C  0.56389075  0.29314959  0.99558164     0.07760
C818        C  0.55850971  0.27766526  0.97738276    -0.02360
Br819      Br  0.57556738  0.28046912  0.94822893    -0.00910
Br820      Br  0.54703325  0.23323250  0.96016391    -0.00980
Br821      Br  0.56235459  0.31063657  0.04282056    -0.00940
Br822      Br  0.51437035  0.28192240  0.04713881    -0.00920
C823        C  0.48142011  0.29309992  0.99813713    -0.02050
C824        C  0.47840177  0.26780801  0.99688362     0.07630
C825        C  0.45453319  0.26062681  0.99202330    -0.02160
C826        C  0.43634804  0.27740189  0.98861170    -0.02160
C827        C  0.43999488  0.30124418  0.99356021     0.07760
C828        C  0.46215021  0.30823159  0.00095237    -0.02360
Br829      Br  0.46656655  0.33925459  0.01442323    -0.00910
Br830      Br  0.50759261  0.31081366  0.98624934    -0.00980
Br831      Br  0.40603970  0.26789260  0.97714260    -0.00940
Br832      Br  0.44404477  0.22856550  0.99128375    -0.00920
C833        C  0.06272817  0.49021668  0.21884374    -0.02050
C834        C  0.06330891  0.51056413  0.20489130     0.07630
C835        C  0.04645281  0.52815907  0.20896957    -0.02160
C836        C  0.02596615  0.52307304  0.22143941    -0.02160
C837        C  0.02427585  0.50200836  0.23545716     0.07760
C838        C  0.04494799  0.48734148  0.23593883    -0.02360
Br839      Br  0.05337817  0.46698047  0.26163563    -0.00910
Br840      Br  0.08546887  0.46548155  0.21410195    -0.00980
Br841      Br  0.00035696  0.54536712  0.21698835    -0.00940
Br842      Br  0.05166848  0.55982129  0.19773130    -0.00920
C843        C  0.98383972  0.49300958  0.20480276    -0.02050
C844        C  0.98068562  0.49329983  0.23013902     0.07630
C845        C  0.95699754  0.48922247  0.23674022    -0.02160
C846        C  0.93858613  0.49794751  0.22296765    -0.02160
C847        C  0.94262751  0.50324362  0.19948524     0.07760
C848        C  0.96466433  0.49784704  0.18995177    -0.02360
Br849      Br  0.96786669  0.49548809  0.15613436    -0.00910
Br850      Br  0.01188137  0.48352113  0.18767271    -0.00980
Br851      Br  0.90761660  0.50042731  0.23591471    -0.00940
Br852      Br  0.94850890  0.46122725  0.25382554    -0.00920
C853        C  0.00210013  0.45152202  0.25838674    -0.02050
C854        C  0.00124056  0.47563960  0.26682968     0.07630
C855        C  0.99867020  0.47799994  0.29192206    -0.02160
C856        C  0.99223054  0.45872692  0.30559112    -0.02160
C857        C  0.99706206  0.43597596  0.29776609     0.07760
C858        C  0.00171225  0.43225270  0.27407995    -0.02360
Br859      Br  0.00778924  0.40037418  0.26365793    -0.00910
Br860      Br  0.00549080  0.44282342  0.22612926    -0.00980
Br861      Br  0.97924302  0.46326714  0.33666912    -0.00940
Br862      Br  0.00991396  0.50345377  0.31145715    -0.00920
C863        C  0.01550798  0.53769628  0.27083393    -0.02050
C864        C  0.99655233  0.52167242  0.26444817     0.07630
C865        C  0.97388005  0.52903140  0.27273822    -0.02160
C866        C  0.96987130  0.55204274  0.28122547    -0.02160
C867        C  0.98842559  0.56614209  0.28831321     0.07760
C868        C  0.01102128  0.55979385  0.28159119    -0.02360
Br869      Br  0.03620148  0.58109462  0.28938525    -0.00910
Br870      Br  0.04828024  0.52854688  0.27292658    -0.00980
Br871      Br  0.93851596  0.56331714  0.28746121    -0.00940
Br872      Br  0.95157769  0.50777861  0.28607922    -0.00920
C873        C  0.20690093  0.50583519  0.01625912    -0.02050
C874        C  0.23182092  0.50297107  0.01889110     0.07630
C875        C  0.23941339  0.49900814  0.04279017    -0.02160
C876        C  0.22303083  0.49669694  0.06138592    -0.02160
C877        C  0.19943137  0.50224858  0.05786450     0.07760
C878        C  0.19263430  0.51008964  0.03575734    -0.02360
Br879      Br  0.16322804  0.52653276  0.03171039    -0.00910
Br880      Br  0.18811326  0.49514868  0.99032145    -0.00980
Br881      Br  0.23285233  0.48605596  0.09184031    -0.00940
Br882      Br  0.27173985  0.49792554  0.05206268    -0.00920
C883        C  0.23517745  0.48224837  0.95747391    -0.02050
C884        C  0.23664020  0.50274879  0.97278291     0.07630
C885        C  0.22500903  0.52361182  0.96377816    -0.02160
C886        C  0.21218829  0.52296644  0.94265881    -0.02160
C887        C  0.20651358  0.50146568  0.93231841     0.07760
C888        C  0.21805097  0.48114974  0.93970255    -0.02360
Br889      Br  0.20950876  0.45140742  0.92551230    -0.00910
Br890      Br  0.25757157  0.45674500  0.95493406    -0.00980
Br891      Br  0.20009387  0.55139244  0.92854425    -0.00940
Br892      Br  0.22205542  0.55316096  0.98035796    -0.00920
C893        C  0.28018390  0.53244869  0.97779258    -0.02050
C894        C  0.26494484  0.52725461  0.99740794     0.07630
C895        C  0.26424693  0.54525393  0.01565298    -0.02160
C896        C  0.28170391  0.56267764  0.01692591    -0.02160
C897        C  0.29749661  0.56575230  0.99862842     0.07760
C898        C  0.29579473  0.55170348  0.97853953    -0.02360
Br899      Br  0.31720205  0.55759711  0.95299309    -0.00910
Br900      Br  0.28331156  0.51253171  0.95028965    -0.00980
Br901      Br  0.28457438  0.58285809  0.04425701    -0.00940
Br902      Br  0.23840156  0.55199425  0.03682585    -0.00920
C903        C  0.25820239  0.45808064  0.00782406    -0.02050
C904        C  0.26681946  0.48109234  0.00104287     0.07630
C905        C  0.29178224  0.48206093  0.99791480    -0.02160
C906        C  0.30459361  0.46145876  0.99392675    -0.02160
C907        C  0.29714633  0.44034018  0.00378030     0.07760
C908        C  0.27387657  0.43886383  0.01135197    -0.02360
Br909      Br  0.26368144  0.41041566  0.02642847    -0.00910
Br910      Br  0.22548486  0.45049809  0.01076753    -0.00980
Br911      Br  0.33354043  0.46309482  0.97659509    -0.00940
Br912      Br  0.31228727  0.50608151  0.01037291    -0.00920
C913        C  0.02006790  0.78427371  0.48311692    -0.02050
C914        C  0.01890424  0.76529355  0.50000956     0.07630
C915        C  0.03807058  0.76465561  0.51678793    -0.02160
C916        C  0.05767082  0.77944140  0.51411352    -0.02160
C917        C  0.05691323  0.79851663  0.49898908     0.07760
C918        C  0.03825589  0.80093280  0.48355500    -0.02360
Br919      Br  0.03848754  0.82735520  0.46225162    -0.00910
Br920      Br  0.99894274  0.78779066  0.45697914    -0.00980
Br921      Br  0.08557182  0.77537129  0.53286107    -0.00940
Br922      Br  0.03810882  0.74998235  0.54745094    -0.00920
C923        C  0.97383932  0.78568078  0.51523714    -0.02050
C924        C  0.97465585  0.76573076  0.49921267     0.07630
C925        C  0.95543895  0.76476385  0.48247731    -0.02160
C926        C  0.93614301  0.78033642  0.48445036    -0.02160
C927        C  0.93732548  0.80030487  0.49865308     0.07760
C928        C  0.95618266  0.80306201  0.51385963    -0.02360
Br929      Br  0.95685592  0.83069451  0.53396015    -0.00910
Br930      Br  0.99466421  0.78960322  0.54155398    -0.00980
Br931      Br  0.90808334  0.77579234  0.46604437    -0.00940
Br932      Br  0.95493914  0.74827400  0.45257635    -0.00920
C933        C  0.98162041  0.71068346  0.47667811    -0.02050
C934        C  0.99747710  0.73053395  0.47778914     0.07630
C935        C  0.01427379  0.73163125  0.45859113    -0.02160
C936        C  0.01146555  0.71755248  0.43840267    -0.02160
C937        C  0.99731698  0.69775135  0.43896736     0.07760
C938        C  0.98285655  0.69398233  0.45827635    -0.02360
Br939      Br  0.96392891  0.66582577  0.45870634    -0.00910
Br940      Br  0.95573751  0.70610358  0.49795151    -0.00980
Br941      Br  0.02902456  0.72363729  0.41004353    -0.00940
Br942      Br  0.04547704  0.74511683  0.45926181    -0.00920
C943        C  0.98074462  0.71766679  0.56104540    -0.02050
C944        C  0.99530487  0.69798165  0.56061046     0.07630
C945        C  0.01095420  0.69485303  0.54206527    -0.02160
C946        C  0.01219727  0.71142257  0.52376973    -0.02160
C947        C  0.99602079  0.73114145  0.52233647     0.07760
C948        C  0.97887638  0.73241786  0.54127537    -0.02360
Br949      Br  0.94844639  0.74777222  0.54055413    -0.00910
Br950      Br  0.96160515  0.72278889  0.58867788    -0.00980
Br951      Br  0.03830506  0.70659363  0.50273710    -0.00940
Br952      Br  0.03172917  0.66780053  0.54273689    -0.00920
C953        C  0.78093725  0.02760186  0.51901136    -0.02050
C954        C  0.76295448  0.02484269  0.50143665     0.07630
C955        C  0.75857889  0.04517537  0.48702100    -0.02160
C956        C  0.77523054  0.06327740  0.48549056    -0.02160
C957        C  0.79429594  0.06384391  0.50064805     0.07760
C958        C  0.79605874  0.04719526  0.51856454    -0.02360
Br959      Br  0.82102399  0.05019763  0.54106505    -0.00910
Br960      Br  0.78699249  0.00439224  0.54320599    -0.00980
Br961      Br  0.77238308  0.08750603  0.46202634    -0.00940
Br962      Br  0.72854006  0.05349613  0.47386811    -0.00920
C963        C  0.77549959  0.93847404  0.50173501    -0.02050
C964        C  0.79929658  0.94235556  0.50587270     0.07630
C965        C  0.80876063  0.96394739  0.49843914    -0.02160
C966        C  0.79380712  0.98299672  0.49247381    -0.02160
C967        C  0.76858921  0.98031088  0.49423449     0.07760
C968        C  0.76181623  0.95644117  0.49183709    -0.02360
Br969      Br  0.74739111  0.94666879  0.46285780    -0.00910
Br970      Br  0.76172899  0.90811399  0.50676854    -0.00980
Br971      Br  0.81023572  0.00954984  0.47881224    -0.00940
Br972      Br  0.84233417  0.96662190  0.49413985    -0.00920
C973        C  0.73723682  0.00164365  0.45413109    -0.02050
C974        C  0.73054519  0.00121405  0.47857842     0.07630
C975        C  0.70559443  0.00225118  0.48261288    -0.02160
C976        C  0.68975255  0.99845285  0.46435041    -0.02160
C977        C  0.69659081  0.00186753  0.44118607     0.07760
C978        C  0.72039911  0.00326078  0.43601981    -0.02360
Br979      Br  0.72978655  0.00864964  0.40389729    -0.00910
Br980      Br  0.76877333  0.00238766  0.44323494    -0.00980
Br981      Br  0.65813696  0.98862076  0.47132649    -0.00940
Br982      Br  0.68998926  0.01573849  0.50965620    -0.00920
C983        C  0.72161224  0.00860155  0.56392161    -0.02050
C984        C  0.71103035  0.98684813  0.56733825     0.07630
C985        C  0.71556189  0.96881039  0.55133939    -0.02160
C986        C  0.72501912  0.97372244  0.52910729    -0.02160
C987        C  0.73612251  0.99598381  0.52405496     0.07760
C988        C  0.73270355  0.01393255  0.54235307    -0.02360
Br989      Br  0.73417311  0.04786053  0.53764839    -0.00910
Br990      Br  0.71876216  0.03188208  0.58869870    -0.00980
Br991      Br  0.71132217  0.95332100  0.50583432    -0.00940
Br992      Br  0.70491575  0.93750996  0.55927525    -0.00920
C993        C  0.51876653  0.05531022  0.78232944    -0.02050
C994        C  0.50032816  0.05555281  0.79849475     0.07630
C995        C  0.47996816  0.04325231  0.79309805    -0.02160
C996        C  0.47819421  0.03234743  0.77120511    -0.02160
C997        C  0.49865254  0.02434114  0.75950526     0.07760
C998        C  0.51705153  0.04161464  0.76157645    -0.02360
Br999      Br  0.53621351  0.05351387  0.73641784    -0.00910
Br1000     Br  0.54656517  0.07324254  0.78909534    -0.00980
Br1001     Br  0.45687171  0.05081486  0.75242704    -0.00940
Br1002     Br  0.45247258  0.04660597  0.81227419    -0.00920
C1003       C  0.47825799  0.96168548  0.76511029    -0.02050
C1004       C  0.49768018  0.97635398  0.75961186     0.07630
C1005       C  0.51859116  0.96490319  0.76686232    -0.02160
C1006       C  0.51948347  0.95381741  0.78872475    -0.02160
C1007       C  0.49858614  0.94661819  0.79941226     0.07760
C1008       C  0.47773840  0.94976538  0.78682702    -0.02360
Br1009     Br  0.44892452  0.93662553  0.79804839    -0.00910
Br1010     Br  0.46199084  0.94469917  0.74086233    -0.00980
Br1011     Br  0.54944907  0.94383801  0.80060550    -0.00940
Br1012     Br  0.53656514  0.94742341  0.74380121    -0.00920
C1013       C  0.45128673  0.99697508  0.73626389    -0.02050
C1014       C  0.47461140  0.00355162  0.72880230     0.07630
C1015       C  0.47483635  0.01610743  0.70701636    -0.02160
C1016       C  0.45664028  0.01334473  0.69068325    -0.02160
C1017       C  0.43725930  0.99945243  0.69611043     0.07760
C1018       C  0.43369143  0.99296567  0.71938546    -0.02360
Br1019     Br  0.40447914  0.97847406  0.72798242    -0.00910
Br1020     Br  0.43995369  0.99609350  0.76854381    -0.00980
Br1021     Br  0.45720161  0.02998225  0.66108396    -0.00940
Br1022     Br  0.49838264  0.03836918  0.69835890    -0.00920
C1023       C  0.53752207  0.98919154  0.68898847    -0.02050
C1024       C  0.55869339  0.99937617  0.69594389     0.07630
C1025       C  0.56256922  0.00351857  0.71978404    -0.02160
C1026       C  0.54401070  0.00152379  0.73607161    -0.02160
C1027       C  0.52041475  0.99731230  0.72796527     0.07760
C1028       C  0.51913516  0.98659410  0.70517887    -0.02360
Br1029     Br  0.49474997  0.96495166  0.69624573    -0.00910
Br1030     Br  0.53410334  0.97778261  0.65722324    -0.00980
Br1031     Br  0.55316368  0.00409524  0.76887881    -0.00940
Br1032     Br  0.59315396  0.01360598  0.72982993    -0.00920
C1033       C  0.04333355  0.50378613  0.75868122    -0.02050
C1034       C  0.01979031  0.49931022  0.76706463     0.07630
C1035       C  0.01768174  0.49844345  0.79231804    -0.02160
C1036       C  0.03756714  0.49630933  0.80640516    -0.02160
C1037       C  0.05910288  0.50438804  0.79841367     0.07760
C1038       C  0.06195806  0.50828743  0.77444865    -0.02360
Br1039     Br  0.09166847  0.51978396  0.76343085    -0.00910
Br1040     Br  0.05233758  0.50262485  0.72616879    -0.00980
Br1041     Br  0.03490983  0.48360497  0.83765831    -0.00940
Br1042     Br  0.99186584  0.50977371  0.81124275    -0.00920
C1043       C  0.96620843  0.47851232  0.77755821    -0.02050
C1044       C  0.97377360  0.49767070  0.76269250     0.07630
C1045       C  0.95724314  0.51711505  0.76099014    -0.02160
C1046       C  0.93976161  0.52029879  0.77814048    -0.02160
C1047       C  0.93498003  0.50266131  0.79424854     0.07760
C1048       C  0.94656370  0.48103823  0.79247863    -0.02360
Br1049     Br  0.93721904  0.45605187  0.81336268    -0.00910
Br1050     Br  0.98336435  0.44951381  0.78179852    -0.00980
Br1051     Br  0.92172679  0.54922225  0.78000264    -0.00940
Br1052     Br  0.95267863  0.53768323  0.73429677    -0.00920
C1053       C  0.97924258  0.46347777  0.72201157    -0.02050
C1054       C  0.99886223  0.47124209  0.73613891     0.07630
C1055       C  0.01792995  0.45429730  0.73759577    -0.02160
C1056       C  0.02003183  0.43590540  0.72094904    -0.02160
C1057       C  0.00181222  0.43074760  0.70563698     0.07760
C1058       C  0.98073702  0.44301152  0.70776127    -0.02360
Br1059     Br  0.95487940  0.43316686  0.68826867    -0.00910
Br1060     Br  0.95071060  0.48113543  0.71792350    -0.00980
Br1061     Br  0.04830625  0.41716237  0.71857232    -0.00940
Br1062     Br  0.03960653  0.45063728  0.76342480    -0.00920
C1063       C  0.00524931  0.54158309  0.73922608    -0.02050
C1064       C  0.00105926  0.51766570  0.73111391     0.07630
C1065       C  0.00004476  0.51505770  0.70591779    -0.02160
C1066       C  0.99760989  0.53481219  0.69151414    -0.02160
C1067       C  0.00462599  0.55701460  0.69938361     0.07760
C1068       C  0.00872583  0.56032012  0.72328409    -0.02360
Br1069     Br  0.01887599  0.59092555  0.73405588    -0.00910
Br1070     Br  0.00476923  0.55103216  0.77168902    -0.00980
Br1071     Br  0.98459727  0.53117953  0.66043367    -0.00940
Br1072     Br  0.01036582  0.48825622  0.68750289    -0.00920
C1073       C  0.50809382  0.79390224  0.01601533    -0.02050
C1074       C  0.50124896  0.76939072  0.01785965     0.07630
C1075       C  0.49284360  0.76330006  0.04124051    -0.02160
C1076       C  0.48865199  0.78073023  0.05875503    -0.02160
C1077       C  0.49747849  0.80338249  0.05625279     0.07760
C1078       C  0.50968164  0.80865873  0.03588067    -0.02360
Br1079     Br  0.52988833  0.83606756  0.03578750    -0.00910
Br1080     Br  0.51176796  0.81231503  0.98855666    -0.00980
Br1081     Br  0.47067534  0.77384314  0.08661354    -0.00940
Br1082     Br  0.48818382  0.73202611  0.05286198    -0.00920
C1083       C  0.52243394  0.77129925  0.95851991    -0.02050
C1084       C  0.50199835  0.76252556  0.97102919     0.07630
C1085       C  0.48051796  0.76647593  0.95851578    -0.02160
C1086       C  0.47816647  0.78593241  0.94363020    -0.02160
C1087       C  0.49785629  0.79577700  0.93321143     0.07760
C1088       C  0.51978268  0.78618065  0.93866427    -0.02360
Br1089     Br  0.54643561  0.79684724  0.92089502    -0.00910
Br1090     Br  0.55436173  0.76967828  0.96967074    -0.00980
Br1091     Br  0.44753221  0.79787678  0.93628244    -0.00940
Br1092     Br  0.46020301  0.74143244  0.94817634    -0.00920
C1093       C  0.48332676  0.70739048  0.00416940    -0.02050
C1094       C  0.48128122  0.73261585  0.00004333     0.07630
C1095       C  0.45757526  0.74147020  0.00076145    -0.02160
C1096       C  0.43831332  0.72607526  0.99750371    -0.02160
C1097       C  0.44188298  0.70169083  0.99541416     0.07760
C1098       C  0.46381526  0.69249242  0.00140963    -0.02360
Br1099     Br  0.46622608  0.65908652  0.00854792    -0.00910
Br1100     Br  0.50980830  0.69143216  0.01878909    -0.00980
Br1101     Br  0.40721982  0.73862139  0.99329982    -0.00940
Br1102     Br  0.44999729  0.77468128  0.00411285    -0.00920
C1103       C  0.54530937  0.73767485  0.01428092    -0.02050
C1104       C  0.52679758  0.73540280  0.99699588     0.07630
C1105       C  0.53133889  0.71843603  0.97837912    -0.02160
C1106       C  0.55122872  0.70361596  0.97858984    -0.02160
C1107       C  0.56696943  0.70441946  0.99715652     0.07760
C1108       C  0.56453499  0.72181945  0.01433208    -0.02360
Br1109     Br  0.58818039  0.72285739  0.03856418    -0.00910
Br1110     Br  0.54815809  0.76211226  0.03777069    -0.00980
Br1111     Br  0.55612717  0.67991514  0.95449133    -0.00940
Br1112     Br  0.50990406  0.71202705  0.95313492    -0.00920
C1113       C  0.79561548  0.48886161  0.02027703    -0.02050
C1114       C  0.77063996  0.49314141  0.02181997     0.07630
C1115       C  0.76149118  0.49450954  0.04539677    -0.02160
C1116       C  0.77647398  0.49811559  0.06483141    -0.02160
C1117       C  0.80065645  0.49825923  0.06173905     0.07760
C1118       C  0.80997418  0.49112767  0.04019853    -0.02360
Br1119     Br  0.84312388  0.48349921  0.03886210    -0.00910
Br1120     Br  0.81236906  0.47649985  0.99341673    -0.00980
Br1121     Br  0.76408204  0.50528315  0.09551517    -0.00940
Br1122     Br  0.72861172  0.49346588  0.05245439    -0.00920
C1123       C  0.77904420  0.51869928  0.96932902    -0.02050
C1124       C  0.76796204  0.49705068  0.97585016     0.07630
C1125       C  0.77145254  0.47765686  0.95927711    -0.02160
C1126       C  0.78173634  0.48143509  0.93713649    -0.02160
C1127       C  0.79177566  0.50296158  0.93175324     0.07760
C1128       C  0.78834884  0.52205118  0.94678271    -0.02360
Br1129     Br  0.80054616  0.55229351  0.93730141    -0.00910
Br1130     Br  0.79236636  0.53992966  0.99163110    -0.00980
Br1131     Br  0.78467983  0.45641312  0.91413574    -0.00940
Br1132     Br  0.76905291  0.44434748  0.96671241    -0.00920
C1133       C  0.72098759  0.46846197  0.97888080    -0.02050
C1134       C  0.73758219  0.47173817  0.99789091     0.07630
C1135       C  0.73882882  0.45229956  0.01406449    -0.02160
C1136       C  0.72006496  0.43651402  0.01622672    -0.02160
C1137       C  0.70206041  0.43642681  0.99985451     0.07760
C1138       C  0.70346973  0.45104829  0.98031232    -0.02360
Br1139     Br  0.67997500  0.44798710  0.95620732    -0.00910
Br1140     Br  0.72038383  0.48696871  0.95021177    -0.00980
Br1141     Br  0.71875886  0.41464905  0.04197586    -0.00940
Br1142     Br  0.76718352  0.44130924  0.02902379    -0.00920
C1143       C  0.74211124  0.54090108  0.01267300    -0.02050
C1144       C  0.73654617  0.51781971  0.00276449     0.07630
C1145       C  0.71353789  0.51710109  0.99349218    -0.02160
C1146       C  0.70368249  0.53696852  0.98324078    -0.02160
C1147       C  0.70801903  0.55891186  0.99348292     0.07760
C1148       C  0.72783418  0.56101825  0.00767760    -0.02360
Br1149     Br  0.73435830  0.59174344  0.02082819    -0.00910
Br1150     Br  0.76343627  0.54668491  0.03838693    -0.00980
Br1151     Br  0.67822637  0.53287561  0.96146609    -0.00940
Br1152     Br  0.68959008  0.49953847  0.00959400    -0.00920
loop_ 
_geom_bond_atom_site_label_1 
_geom_bond_atom_site_label_2 
_geom_bond_distance 
_geom_bond_site_symmetry_2 
_ccdc_geom_bond_type 
C1         C1114   1.598   1_556  S
C1         C1124   1.604       .  S
C1         C1134   1.607       .  S
C1         C1144   1.635   1_556  S
C2         C1074   1.626   1_556  S
C2         C1084   1.631       .  S
C2         C1094   1.612   1_556  S
C2         C1104   1.599       .  S
C3         C1034   1.607   1_655  S
C3         C1044   1.604       .  S
C3         C1054   1.609       .  S
C3         C1064   1.606   1_655  S
C4          C997   1.621       .  S
C4         C1004   1.632   1_545  S
C4         C1014   1.603       .  S
C4         C1027   1.595   1_545  S
C5          C954   1.583       .  S
C5          C967   1.626   1_545  S
C5          C974   1.604       .  S
C5          C987   1.625   1_545  S
C6          C914   1.606   1_655  S
C6          C924   1.610       .  S
C6          C934   1.607       .  S
C6          C947   1.611       .  S
C7          C874   1.602   1_556  S
C7          C884   1.611       .  S
C7          C894   1.605       .  S
C7          C904   1.606   1_556  S
O8          Cu16   1.995   1_655  S
O8           C18   1.274       .  A
O9          Cu16   1.991   1_556  S
O9           C19   1.274       .  A
O10         Cu16   2.015   1_656  S
O10          C20   1.278       .  A
O11         Cu16   2.023       .  S
O11          C21   1.280       .  A
O12         Cu17   1.979   1_455  S
O12          C21   1.272       .  A
O13         Cu17   1.980   1_556  S
O13          C20   1.274       .  A
O14         Cu17   2.009   1_456  S
O14          C19   1.278       .  A
O15         Cu17   2.017       .  S
O15          C18   1.279       .  A
Cu16        Cu17   2.381   1_455  S
C18          C60   1.458       .  S
C19          C84   1.456       .  S
C20          C35   1.455       .  S
C21         C590   1.458       .  S
N22          N23   1.325       .  A
N22          C26   1.351       .  A
N22         Cu30   2.093       .  S
N23          C24   1.339       .  A
N23         Cu29   2.065       .  S
C24          C25   1.375       .  A
C24          H27   1.081       .  S
C25        C1047   1.476       .  S
C25          C26   1.386       .  A
C26          H28   1.082       .  S
Cu29         N32   2.061       .  S
Cu30         N40   2.090       .  S
Cu31         N33   2.044       .  S
Cu31         N39   2.043       .  S
N32          N33   1.318       .  A
N32          C36   1.346       .  A
N33          C34   1.338       .  A
C34          C35   1.378       .  A
C34          H37   1.082       .  S
C35          C36   1.383       .  A
C36          H38   1.082       .  S
N39          N40   1.322       .  A
N39          C43   1.334       .  A
N40          C41   1.354       .  A
C41          C42   1.390       .  A
C41          H44   1.081       .  S
C42        C1127   1.474       .  S
C42          C43   1.373       .  A
C43          H45   1.082       .  S
C46         C837   1.584       .  S
C46         C844   1.625   1_455  S
C46         C854   1.600       .  S
C46         C864   1.621   1_455  S
N47          N48   1.324       .  A
N47          C51   1.354       .  A
N47         Cu55   2.124       .  S
N48          C49   1.337       .  A
N48         Cu54   2.054       .  S
C49          C50   1.377       .  A
C49          H52   1.082       .  S
C50         C847   1.487       .  S
C50          C51   1.395       .  A
C51          H53   1.082       .  S
Cu54         N57   2.056       .  S
Cu55         N65   2.122       .  S
Cu56         N58   2.051       .  S
Cu56         N64   2.048       .  S
N57          N58   1.316       .  A
N57          C61   1.345       .  A
N58          C59   1.343       .  A
C59          C60   1.380       .  A
C59          H62   1.082       .  S
C60          C61   1.382       .  A
C61          H63   1.082       .  S
N64          N65   1.322       .  A
N64          C68   1.336       .  A
N65          C66   1.356       .  A
C66          C67   1.397       .  A
C66          H69   1.082       .  S
C67        C1117   1.487       .  S
C67          C68   1.377       .  A
C68          H70   1.083       .  S
N71          N72   1.325       .  A
N71          C75   1.356       .  A
N71         Cu79   2.116       .  S
N72          C73   1.339       .  A
N72         Cu78   2.068       .  S
C73          C74   1.379       .  A
C73          H76   1.082       .  S
C74        C1037   1.490       .  S
C74          C75   1.393       .  A
C75          H77   1.082       .  S
Cu78         N81   2.069       .  S
Cu79         N89   2.113       .  S
Cu80         N82   2.041       .  S
Cu80         N88   2.042       .  S
N81          N82   1.319       .  A
N81          C85   1.346       .  A
N82          C83   1.340       .  A
C83          C84   1.376       .  A
C83          H86   1.082       .  S
C84          C85   1.384       .  A
C85          H87   1.082       .  S
N88          N89   1.321       .  A
N88          C92   1.336       .  A
N89          C90   1.357       .  A
C90          C91   1.396       .  A
C90          H93   1.082       .  S
C91         C887   1.483       .  S
C91          C92   1.373       .  A
C92          H94   1.080       .  S
O95        Cu103   1.983       .  S
O95         C105   1.276   1_554  A
O96        Cu103   2.002       .  S
O96         C106   1.276   1_554  A
O97        Cu103   1.975       .  S
O97         C107   1.272   1_554  A
O98        Cu103   1.981       .  S
O98         C108   1.274   1_554  A
O99        Cu104   2.014       .  S
O99         C108   1.278       .  A
O100       Cu104   2.010       .  S
O100        C107   1.278       .  A
O101       Cu104   1.989       .  S
O101        C106   1.275       .  A
O102       Cu104   2.006       .  S
O102        C105   1.276       .  A
Cu103      Cu104   2.380   1_554  S
C105        C566   1.456       .  S
C106        C518   1.453       .  S
C107        C122   1.448   1_556  S
C108        C662   1.458       .  S
N109        N110   1.321   1_556  A
N109        C113   1.362       .  A
N109       Cu117   2.129       .  S
N110        C111   1.328       .  A
N110       Cu116   2.024       .  S
C111        C112   1.372   1_554  A
C111        H114   1.082       .  S
C112       C1147   1.491       .  S
C112        C113   1.402       .  A
C113        H115   1.082       .  S
Cu116       N119   2.025       .  S
Cu117       N127   2.134   1_556  S
Cu118       N120   2.044       .  S
Cu118       N126   2.045       .  S
N119        N120   1.313       .  A
N119        C123   1.340   1_554  A
N120        C121   1.341       .  A
C121        C122   1.381       .  A
C121        H124   1.082       .  S
C122        C123   1.377   1_554  A
C123        H125   1.082       .  S
N126        N127   1.327       .  A
N126        C130   1.335       .  A
N127        C128   1.357   1_554  A
C128        C129   1.394   1_556  A
C128        H131   1.082       .  S
C129       C1107   1.481   1_554  S
C129        C130   1.368       .  A
C130        H132   1.081       .  S
C133        C794   1.610       .  S
C133        C804   1.614   1_554  S
C133        C814   1.617   1_554  S
C133        C824   1.615   1_554  S
O134       Cu142   1.986   1_565  S
O134        C144   1.275       .  A
O135       Cu142   1.979   1_556  S
O135        C145   1.275       .  A
O136       Cu142   1.976   1_566  S
O136        C146   1.273       .  A
O137       Cu142   1.983       .  S
O137        C147   1.275       .  A
O138       Cu143   1.994       .  S
O138        C147   1.276       .  A
O139       Cu143   2.013   1_566  S
O139        C146   1.277       .  A
O140       Cu143   2.009   1_556  S
O140        C145   1.275       .  A
O141       Cu143   2.004   1_565  S
O141        C144   1.277       .  A
Cu142      Cu143   2.382       .  S
C144        C186   1.456       .  S
C145        C210   1.452       .  S
C146        C161   1.450       .  S
C147        C542   1.452       .  S
N148        N149   1.325       .  A
N148        C152   1.357       .  A
N148       Cu156   2.139       .  S
N149        C150   1.339       .  A
N149       Cu155   2.046       .  S
C150        C151   1.373       .  A
C150        H153   1.082       .  S
C151       C1007   1.488       .  S
C151        C152   1.399       .  A
C152        H154   1.082       .  S
Cu155       N158   2.044       .  S
Cu156       N166   2.136       .  S
Cu157       N159   2.045       .  S
Cu157       N165   2.042       .  S
N158        N159   1.315       .  A
N158        C162   1.343       .  A
N159        C160   1.339       .  A
C160        C161   1.381       .  A
C160        H163   1.082       .  S
C161        C162   1.382       .  A
C162        H164   1.082       .  S
N165        N166   1.322       .  A
N165        C169   1.334       .  A
N166        C167   1.361       .  A
C167        C168   1.400       .  A
C167        H170   1.081       .  S
C168       C1087   1.491       .  S
C168        C169   1.372       .  A
C169        H171   1.072       .  S
C172        C754   1.614       .  S
C172        C764   1.617   1_545  S
C172        C777   1.609       .  S
C172        C784   1.612       .  S
N173        N174   1.322       .  A
N173        C177   1.354       .  A
N173       Cu181   2.107       .  S
N174        C175   1.340       .  A
N174       Cu180   2.052       .  S
C175        C176   1.376       .  A
C175        H178   1.082       .  S
C176        C767   1.485       .  S
C176        C177   1.393       .  A
C177        H179   1.082       .  S
Cu180       N183   2.052       .  S
Cu181       N191   2.106       .  S
Cu182       N184   2.060       .  S
Cu182       N190   2.057       .  S
N183        N184   1.321       .  A
N183        C187   1.343       .  A
N184        C185   1.341       .  A
C185        C186   1.380       .  A
C185        H188   1.082       .  S
C186        C187   1.379       .  A
C187        H189   1.082       .  S
N190        N191   1.321       .  A
N190        C194   1.339       .  A
N191        C192   1.354       .  A
C192        C193   1.395       .  A
C192        H195   1.082       .  S
C193       C1077   1.492       .  S
C193        C194   1.380       .  A
C194        H196   1.082       .  S
N197        N198   1.327       .  A
N197        C201   1.356       .  A
N197       Cu205   2.126       .  S
N198        C199   1.339       .  A
N198       Cu204   2.076       .  S
C199        C200   1.379       .  A
C199        H202   1.082       .  S
C200        C807   1.493       .  S
C200        C201   1.394       .  A
C201        H203   1.082       .  S
Cu204       N207   2.077       .  S
Cu205       N215   2.122       .  S
Cu206       N208   2.009       .  S
Cu206       N214   2.007       .  S
N207        N208   1.316       .  A
N207        C211   1.350       .  A
N208        C209   1.331       .  A
C209        C210   1.370       .  A
C209        H212   1.083       .  S
C210        C211   1.389       .  A
C211        H213   1.082       .  S
N214        N215   1.319       .  A
N214        C218   1.336       .  A
N215        C216   1.354       .  A
C216        C217   1.397       .  A
C216        H219   1.082       .  S
C217        C994   1.473       .  S
C217        C218   1.366       .  A
C218        H220   1.082       .  S
O221       Cu229   2.002       .  S
O221        C231   1.276       .  A
O222       Cu229   2.004       .  S
O222        C232   1.277       .  A
O223       Cu229   1.978       .  S
O223        C233   1.273       .  A
O224       Cu229   1.995       .  S
O224        C234   1.274       .  A
O225       Cu230   1.998   1_455  S
O225        C234   1.277       .  A
O226       Cu230   2.015       .  S
O226        C233   1.278   1_655  A
O227       Cu230   1.988       .  S
O227        C232   1.275   1_655  A
O228       Cu230   1.991   1_455  S
O228        C231   1.275       .  A
Cu229      Cu230   2.381   1_455  S
C231        C422   1.452       .  S
C232        C494   1.456       .  S
C233        C248   1.456       .  S
C234        C614   1.451       .  S
N235        N236   1.321       .  A
N235        C239   1.354       .  A
N235       Cu243   2.100   1_455  S
N236        C237   1.338       .  A
N236       Cu242   2.056       .  S
C237        C238   1.380       .  A
C237        H240   1.082       .  S
C238       C1067   1.490       .  S
C238        C239   1.394       .  A
C239        H241   1.082   1_455  S
Cu242       N245   2.061       .  S
Cu243       N253   2.102       .  S
Cu244       N246   2.052       .  S
Cu244       N252   2.052       .  S
N245        N246   1.321   1_455  A
N245        C249   1.339       .  A
N246        C247   1.344       .  A
C247        C248   1.379   1_655  A
C247        H250   1.082       .  S
C248        C249   1.380       .  A
C249        H251   1.082       .  S
N252        N253   1.322       .  A
N252        C256   1.339       .  A
N253        C254   1.354       .  A
C254        C255   1.392       .  A
C254        H257   1.082   1_655  S
C255        C944   1.483       .  S
C255        C256   1.376       .  A
C256        H258   1.082       .  S
O259       Cu267   1.983       .  S
O259        C269   1.274   1_565  A
O260       Cu267   1.981       .  S
O260        C270   1.274   1_565  A
O261       Cu267   1.999       .  S
O261        C271   1.276   1_565  A
O262       Cu267   1.996       .  S
O262        C272   1.277   1_565  A
O263       Cu268   1.998       .  S
O263        C272   1.275       .  A
O264       Cu268   2.002       .  S
O264        C271   1.276       .  A
O265       Cu268   2.018       .  S
O265        C270   1.279       .  A
O266       Cu268   2.022       .  S
O266        C269   1.279       .  A
Cu267      Cu268   2.372   1_565  S
C269        C398   1.461       .  S
C270        C470   1.460       .  S
C271        C286   1.458       .  S
C272        C638   1.455       .  S
N273        N274   1.321       .  A
N273        C277   1.357       .  A
N273       Cu281   2.111       .  S
N274        C275   1.338       .  A
N274       Cu280   2.057       .  S
C275        C276   1.380       .  A
C275        H278   1.082       .  S
C276        C984   1.493       .  S
C276        C277   1.397       .  A
C277        H279   1.081       .  S
Cu280       N283   2.056   1_565  S
Cu281       N291   2.113   1_565  S
Cu282       N284   2.059       .  S
Cu282       N290   2.059       .  S
N283        N284   1.320       .  A
N283        C287   1.341   1_545  A
N284        C285   1.344       .  A
C285        C286   1.381       .  A
C285        H288   1.082       .  S
C286        C287   1.379   1_545  A
C287        H289   1.082       .  S
N290        N291   1.325       .  A
N290        C294   1.340       .  A
N291        C292   1.353   1_545  A
C292        C293   1.392   1_565  A
C292        H295   1.082       .  S
C293       C1024   1.486   1_545  S
C293        C294   1.377       .  A
C294        H296   1.082       .  S
C297        C714   1.597   1_565  S
C297        C724   1.609       .  S
C297        C734   1.604   1_565  S
C297        C744   1.599       .  S
O298       Cu306   2.009   1_455  S
O298        C308   1.278       .  A
O299       Cu306   2.009   1_565  S
O299        C309   1.278       .  A
O300       Cu306   1.993       .  S
O300        C310   1.275       .  A
O301       Cu306   1.982   1_465  S
O301        C311   1.274       .  A
O302       Cu307   2.004   1_465  S
O302        C311   1.276       .  A
O303       Cu307   1.986       .  S
O303        C310   1.275       .  A
O304       Cu307   1.986   1_565  S
O304        C309   1.274       .  A
O305       Cu307   1.985   1_455  S
O305        C308   1.273       .  A
Cu306      Cu307   2.380       .  S
C308        C446   1.452       .  S
C309        C325   1.458       .  S
C310        C350   1.450       .  S
C311        C374   1.450       .  S
N312        N313   1.321       .  A
N312        C316   1.352       .  A
N312       Cu320   2.102       .  S
N313        C314   1.342       .  A
N313       Cu319   2.064       .  S
C314        C315   1.383       .  A
C314        H317   1.082       .  S
C315        C964   1.495       .  S
C315        C316   1.394       .  A
C316        H318   1.082       .  S
Cu319       N322   2.072       .  S
Cu320       N330   2.101       .  S
Cu321       N323   2.049       .  S
Cu321       N329   2.048       .  S
N322        N323   1.322       .  A
N322        C326   1.342       .  A
N323        C324   1.342       .  A
C324        C325   1.378       .  A
C324        H327   1.082       .  S
C325        C326   1.382       .  A
C326        H328   1.082       .  S
N329        N330   1.321       .  A
N329        C333   1.340       .  A
N330        C331   1.353       .  A
C331        C332   1.392       .  A
C331        H334   1.082       .  S
C332        C927   1.484       .  S
C332        C333   1.377       .  A
C333        H335   1.082       .  S
C336        C674   1.577   1_655  S
C336        C684   1.616       .  S
C336        C694   1.650       .  S
C336        C704   1.595       .  S
N337        N338   1.321       .  A
N337        C341   1.351       .  A
N337       Cu345   2.090       .  S
N338        C339   1.339       .  A
N338       Cu344   2.051       .  S
C339        C340   1.378       .  A
C339        H342   1.082       .  S
C340        C687   1.478       .  S
C340        C341   1.389       .  A
C341        H343   1.082       .  S
Cu344       N347   2.054       .  S
Cu345       N355   2.090       .  S
Cu346       N348   2.048       .  S
Cu346       N354   2.049       .  S
N347        N348   1.321       .  A
N347        C351   1.340       .  A
N348        C349   1.342       .  A
C349        C350   1.378       .  A
C349        H352   1.082       .  S
C350        C351   1.378       .  A
C351        H353   1.082       .  S
N354        N355   1.322       .  A
N354        C358   1.339       .  A
N355        C356   1.351       .  A
C356        C357   1.389       .  A
C356        H359   1.082       .  S
C357        C957   1.477       .  S
C357        C358   1.375       .  A
C358        H360   1.081       .  S
N361        N362   1.326       .  A
N361        C365   1.355       .  A
N361       Cu369   2.112       .  S
N362        C363   1.336       .  A
N362       Cu368   2.051       .  S
C363        C364   1.370       .  A
C363        H366   1.082       .  S
C364        C917   1.476       .  S
C364        C365   1.391       .  A
C365        H367   1.082       .  S
Cu368       N371   2.049       .  S
Cu369       N379   2.108       .  S
Cu370       N372   2.032       .  S
Cu370       N378   2.033       .  S
N371        N372   1.316       .  A
N371        C375   1.344       .  A
N372        C373   1.337       .  A
C373        C374   1.376       .  A
C373        H376   1.082       .  S
C374        C375   1.381       .  A
C375        H377   1.082       .  S
N378        N379   1.321       .  A
N378        C382   1.332       .  A
N379        C380   1.356       .  A
C380        C381   1.395       .  A
C380        H383   1.081       .  S
C381        C727   1.478       .  S
C381        C382   1.371       .  A
C382        H384   1.080       .  S
N385        N386   1.323       .  A
N385        C389   1.353       .  A
N385       Cu393   2.100       .  S
N386        C387   1.340       .  A
N386       Cu392   2.068       .  S
C387        C388   1.381       .  A
C387        H390   1.082       .  S
C388        C737   1.488       .  S
C388        C389   1.391       .  A
C389        H391   1.082   1_545  S
Cu392       N395   2.069       .  S
Cu393       N403   2.104   1_545  S
Cu394       N396   2.058   1_565  S
Cu394       N402   2.049       .  S
N395        N396   1.321       .  A
N395        C399   1.347       .  A
N396        C397   1.339   1_545  A
C397        C398   1.379   1_565  A
C397        H400   1.082       .  S
C398        C399   1.384       .  A
C399        H401   1.082       .  S
N402        N403   1.321       .  A
N402        C406   1.339       .  A
N403        C404   1.352       .  A
C404        C405   1.391       .  A
C404        H407   1.090   1_565  S
C405       C1017   1.482       .  S
C405        C406   1.380       .  A
C406        H408   1.070       .  S
N409        N410   1.321   1_655  A
N409        C413   1.358       .  A
N409       Cu417   2.114   1_655  S
N410        C411   1.333       .  A
N410       Cu416   2.035       .  S
C411        C412   1.371   1_455  A
C411        H414   1.072       .  S
C412        C697   1.482       .  S
C412        C413   1.396       .  A
C413        H415   1.081       .  S
Cu416       N419   2.035       .  S
Cu417       N427   2.117       .  S
Cu418       N420   2.056       .  S
Cu418       N426   2.058       .  S
N419        N420   1.316       .  A
N419        C423   1.339       .  A
N420        C421   1.345       .  A
C421        C422   1.382       .  A
C421        H424   1.082       .  S
C422        C423   1.377       .  A
C423        H425   1.082       .  S
N426        N427   1.326       .  A
N426        C430   1.337       .  A
N427        C428   1.355   1_455  A
C428        C429   1.392   1_655  A
C428        H431   1.082       .  S
C429       C1057   1.480       .  S
C429        C430   1.372       .  A
C430        H432   1.081       .  S
N433        N434   1.325       .  A
N433        C437   1.354       .  A
N433       Cu441   2.114       .  S
N434        C435   1.333       .  A
N434       Cu440   2.051       .  S
C435        C436   1.374       .  A
C435        H438   1.082       .  S
C436        C677   1.483       .  S
C436        C437   1.393       .  A
C437        H439   1.082       .  S
Cu440       N443   2.055       .  S
Cu441       N451   2.112       .  S
Cu442       N444   2.028       .  S
Cu442       N450   2.028       .  S
N443        N444   1.313       .  A
N443        C447   1.344       .  A
N444        C445   1.340       .  A
C445        C446   1.378       .  A
C445        H448   1.082       .  S
C446        C447   1.383       .  A
C447        H449   1.082       .  S
N450        N451   1.321       .  A
N450        C454   1.331       .  A
N451        C452   1.356       .  A
C452        C453   1.395       .  A
C452        H455   1.082       .  S
C453        C717   1.479       .  S
C453        C454   1.373       .  A
C454        H456   1.083       .  S
N457        N458   1.320       .  A
N457        C461   1.350   1_545  A
N457       Cu465   2.078   1_545  S
N458        C459   1.338       .  A
N458       Cu464   2.055       .  S
C459        C460   1.382       .  A
C459        H462   1.082       .  S
C460        C977   1.487       .  S
C460        C461   1.390   1_545  A
C461        H463   1.082       .  S
Cu464       N467   2.059       .  S
Cu465       N475   2.079       .  S
Cu466       N468   2.073       .  S
Cu466       N474   2.065       .  S
N467        N468   1.323   1_545  A
N467        C471   1.345       .  A
N468        C469   1.341       .  A
C469        C470   1.381   1_565  A
C469        H472   1.082       .  S
C470        C471   1.379       .  A
C471        H473   1.082       .  S
N474        N475   1.319       .  A
N474        C478   1.340       .  A
N475        C476   1.349       .  A
C476        C477   1.391       .  A
C476        H479   1.081   1_565  S
C477        C787   1.494       .  S
C477        C478   1.385       .  A
C478        H480   1.082       .  S
N481        N482   1.324       .  A
N481        C485   1.353   1_455  A
N481       Cu489   2.102   1_455  S
N482        C483   1.338       .  A
N482       Cu488   2.048       .  S
C483        C484   1.373       .  A
C483        H486   1.082       .  S
C484        C937   1.476   1_455  S
C484        C485   1.389   1_455  A
C485        H487   1.082       .  S
Cu488       N491   2.047       .  S
Cu489       N499   2.100       .  S
Cu490       N492   2.060   1_655  S
Cu490       N498   2.060       .  S
N491        N492   1.319       .  A
N491        C495   1.343       .  A
N492        C493   1.341   1_455  A
C493        C494   1.381   1_655  A
C493        H496   1.082       .  S
C494        C495   1.379       .  A
C495        H497   1.082       .  S
N498        N499   1.322       .  A
N498        C502   1.338       .  A
N499        C500   1.355       .  A
C500        C501   1.394       .  A
C500        H503   1.082       .  S
C501        C867   1.486       .  S
C501        C502   1.379       .  A
C502        H504   1.082       .  S
N505        N506   1.322       .  A
N505        C509   1.354       .  A
N505       Cu513   2.104       .  S
N506        C507   1.339       .  A
N506       Cu512   2.053       .  S
C507        C508   1.376       .  A
C507        H510   1.081       .  S
C508        C817   1.483       .  S
C508        C509   1.392       .  A
C509        H511   1.082   1_556  S
Cu512       N515   2.054       .  S
Cu513       N523   2.105   1_556  S
Cu514       N516   2.051       .  S
Cu514       N522   2.053       .  S
N515        N516   1.320   1_556  A
N515        C519   1.341       .  A
N516        C517   1.342       .  A
C517        C518   1.379   1_554  A
C517        H520   1.082       .  S
C518        C519   1.379       .  A
C519        H521   1.082       .  S
N522        N523   1.323       .  A
N522        C526   1.340       .  A
N523        C524   1.352   1_554  A
C524        C525   1.390   1_556  A
C524        H527   1.082       .  S
C525       C1137   1.478   1_554  S
C525        C526   1.374       .  A
C526        H528   1.082       .  S
N529        N530   1.321       .  A
N529        C533   1.354       .  A
N529       Cu537   2.104       .  S
N530        C531   1.338       .  A
N530       Cu536   2.047       .  S
C531        C532   1.376       .  A
C531        H534   1.081       .  S
C532        C797   1.483       .  S
C532        C533   1.394       .  A
C533        H535   1.082       .  S
Cu536       N539   2.048       .  S
Cu537       N547   2.106       .  S
Cu538       N540   2.050       .  S
Cu538       N546   2.049       .  S
N539        N540   1.320       .  A
N539        C543   1.339       .  A
N540        C541   1.342       .  A
C541        C542   1.379       .  A
C541        H544   1.082       .  S
C542        C543   1.378       .  A
C543        H545   1.082       .  S
N546        N547   1.323       .  A
N546        C550   1.339       .  A
N547        C548   1.354       .  A
C548        C549   1.393       .  A
C548        H551   1.082       .  S
C549        C757   1.485       .  S
C549        C550   1.376       .  A
C550        H552   1.082       .  S
N553        N554   1.319       .  A
N553        C557   1.353   1_554  A
N553       Cu561   2.103   1_554  S
N554        C555   1.339       .  A
N554       Cu560   2.035       .  S
C555        C556   1.374       .  A
C555        H558   1.082       .  S
C556        C897   1.480   1_554  S
C556        C557   1.393   1_554  A
C557        H559   1.081       .  S
Cu560       N563   2.037   1_554  S
Cu561       N571   2.107       .  S
Cu562       N564   2.077       .  S
Cu562       N570   2.074       .  S
N563        N564   1.322       .  A
N563        C567   1.336   1_556  A
N564        C565   1.347       .  A
C565        C566   1.385       .  A
C565        H568   1.082       .  S
C566        C567   1.373   1_556  A
C567        H569   1.082       .  S
N570        N571   1.323       .  A
N570        C574   1.341       .  A
N571        C572   1.354       .  A
C572        C573   1.395       .  A
C572        H575   1.082   1_556  S
C573       C1097   1.498       .  S
C573        C574   1.384       .  A
C574        H576   1.082       .  S
N577        N578   1.324       .  A
N577        C581   1.356       .  A
N577       Cu585   2.114       .  S
N578        C579   1.338       .  A
N578       Cu584   2.067       .  S
C579        C580   1.380       .  A
C579        H582   1.082       .  S
C580        C877   1.495       .  S
C580        C581   1.396       .  A
C581        H583   1.082       .  S
Cu584       N587   2.072       .  S
Cu585       N595   2.111       .  S
Cu586       N588   2.038       .  S
Cu586       N594   2.044       .  S
N587        N588   1.318       .  A
N587        C591   1.343       .  A
N588        C589   1.343       .  A
C589        C590   1.378       .  A
C589        H592   1.082       .  S
C590        C591   1.385       .  A
C591        H593   1.082       .  S
N594        N595   1.319       .  A
N594        C598   1.334       .  A
N595        C596   1.357       .  A
C596        C597   1.401       .  A
C596        H599   1.081       .  S
C597        C834   1.497       .  S
C597        C598   1.379       .  A
C598        H600   1.082       .  S
N601        N602   1.322   1_655  A
N601        C605   1.358       .  A
N601       Cu609   2.110       .  S
N602        C603   1.328       .  A
N602       Cu608   2.022       .  S
C603        C604   1.370   1_455  A
C603        H606   1.083       .  S
C604        C707   1.478       .  S
C604        C605   1.396       .  A
C605        H607   1.082       .  S
Cu608       N611   2.024       .  S
Cu609       N619   2.113   1_655  S
Cu610       N612   2.055       .  S
Cu610       N618   2.056       .  S
N611        N612   1.313       .  A
N611        C615   1.339       .  A
N612        C613   1.345       .  A
C613        C614   1.384       .  A
C613        H616   1.082       .  S
C614        C615   1.376       .  A
C615        H617   1.082       .  S
N618        N619   1.326       .  A
N618        C622   1.333       .  A
N619        C620   1.355   1_455  A
C620        C621   1.392   1_655  A
C620        H623   1.082       .  S
C621        C857   1.479   1_455  S
C621        C622   1.374       .  A
C622        H624   1.083       .  S
N625        N626   1.320   1_545  A
N625        C629   1.352       .  A
N625       Cu633   2.086       .  S
N626        C627   1.333       .  A
N626       Cu632   2.036       .  S
C627        C628   1.374       .  A
C627        H630   1.082       .  S
C628        C747   1.476       .  S
C628        C629   1.391   1_565  A
C629        H631   1.082       .  S
Cu632       N635   2.035   1_565  S
Cu633       N643   2.090       .  S
Cu634       N636   2.067       .  S
Cu634       N642   2.069       .  S
N635        N636   1.318       .  A
N635        C639   1.339       .  A
N636        C637   1.345       .  A
C637        C638   1.384       .  A
C637        H640   1.082       .  S
C638        C639   1.376       .  A
C639        H641   1.082   1_545  S
N642        N643   1.325       .  A
N642        C646   1.339       .  A
N643        C644   1.351       .  A
C644        C645   1.386       .  A
C644        H647   1.082   1_545  S
C645        C774   1.478       .  S
C645        C646   1.376       .  A
C646        H648   1.081       .  S
N649        N650   1.323       .  A
N649        C653   1.356       .  A
N649       Cu657   2.114       .  S
N650        C651   1.340       .  A
N650       Cu656   2.059       .  S
C651        C652   1.380       .  A
C651        H654   1.082       .  S
C652        C827   1.493       .  S
C652        C653   1.395       .  A
C653        H655   1.082   1_556  S
Cu656       N659   2.060       .  S
Cu657       N667   2.111   1_556  S
Cu658       N660   2.061       .  S
Cu658       N666   2.055       .  S
N659        N660   1.321   1_556  A
N659        C663   1.346       .  A
N660        C661   1.339       .  A
C661        C662   1.379   1_554  A
C661        H664   1.082       .  S
C662        C663   1.381       .  A
C663        H665   1.082       .  S
N666        N667   1.320       .  A
N666        C670   1.338       .  A
N667        C668   1.357       .  A
C668        C669   1.397       .  A
C668        H671   1.082   1_554  S
C669        C907   1.492       .  S
C669        C670   1.381       .  A
C670        H672   1.082       .  S
C673        C674   1.432       .  A
C673        C678   1.396       .  A
C673       Br680   1.951   1_455  S
C674        C675   1.444       .  A
C675        C676   1.420       .  A
C675       Br682   1.928       .  S
C676        C677   1.403       .  A
C676       Br681   1.934       .  S
C677        C678   1.405       .  A
C678       Br679   1.935       .  S
C683        C684   1.443       .  A
C683        C688   1.419       .  A
C683       Br690   1.920       .  S
C684        C685   1.404       .  A
C685        C686   1.405       .  A
C685       Br692   1.928       .  S
C686        C687   1.400       .  A
C686       Br691   1.921       .  S
C687        C688   1.409       .  A
C688       Br689   1.934       .  S
C693        C694   1.470   1_455  A
C693        C698   1.412       .  A
C693       Br700   1.940       .  S
C694        C695   1.469       .  A
C695        C696   1.423       .  A
C695       Br702   1.928       .  S
C696        C697   1.391       .  A
C696       Br701   1.944       .  S
C697        C698   1.386   1_655  A
C698       Br699   1.938       .  S
C703        C704   1.445   1_455  A
C703        C708   1.418   1_455  A
C703       Br710   1.932       .  S
C704        C705   1.422       .  A
C705        C706   1.399       .  A
C705       Br712   1.925   1_655  S
C706        C707   1.400       .  A
C706       Br711   1.935       .  S
C707        C708   1.399       .  A
C708       Br709   1.936   1_655  S
C713        C714   1.443       .  A
C713        C718   1.396       .  A
C713       Br720   1.938   1_545  S
C714        C715   1.454       .  A
C715        C716   1.420       .  A
C715       Br722   1.929       .  S
C716        C717   1.398       .  A
C716       Br721   1.932       .  S
C717        C718   1.397       .  A
C718       Br719   1.937       .  S
C723        C724   1.455       .  A
C723        C728   1.411       .  A
C723       Br730   1.934       .  S
C724        C725   1.458       .  A
C725        C726   1.418       .  A
C725       Br732   1.943       .  S
C726        C727   1.396       .  A
C726       Br731   1.936       .  S
C727        C728   1.393       .  A
C728       Br729   1.941       .  S
C733        C734   1.451   1_565  A
C733        C738   1.402       .  A
C733       Br740   1.942   1_565  S
C734        C735   1.454       .  A
C735        C736   1.421       .  A
C735       Br742   1.929       .  S
C736        C737   1.399       .  A
C736       Br741   1.934       .  S
C737        C738   1.396   1_545  A
C738       Br739   1.939       .  S
C743        C744   1.459   1_545  A
C743        C748   1.415       .  A
C743       Br750   1.943       .  S
C744        C745   1.450       .  A
C745        C746   1.406       .  A
C745       Br752   1.932       .  S
C746        C747   1.395       .  A
C746       Br751   1.941       .  S
C747        C748   1.397   1_565  A
C748       Br749   1.937       .  S
C753        C754   1.458       .  A
C753        C758   1.421       .  A
C753       Br760   1.921       .  S
C754        C755   1.451       .  A
C755        C756   1.406       .  A
C755       Br762   1.936   1_545  S
C756        C757   1.396       .  A
C756       Br761   1.937       .  S
C757        C758   1.395       .  A
C758       Br759   1.940       .  S
C763        C764   1.454       .  A
C763        C768   1.422       .  A
C763       Br770   1.929       .  S
C764        C765   1.456       .  A
C765        C766   1.412       .  A
C765       Br772   1.944       .  S
C766        C767   1.395       .  A
C766       Br771   1.939       .  S
C767        C768   1.400       .  A
C768       Br769   1.938       .  S
C773        C774   1.395   1_565  A
C773        C778   1.416       .  A
C773       Br780   1.942       .  S
C774        C775   1.393       .  A
C775        C776   1.416       .  A
C775       Br782   1.940       .  S
C776        C777   1.458       .  A
C776       Br781   1.940       .  S
C777        C778   1.454   1_545  A
C778       Br779   1.921       .  S
C783        C784   1.459       .  A
C783        C788   1.416       .  A
C783       Br790   1.946       .  S
C784        C785   1.450       .  A
C785        C786   1.420   1_545  A
C785       Br792   1.928       .  S
C786        C787   1.400       .  A
C786       Br791   1.937       .  S
C787        C788   1.401   1_565  A
C788       Br789   1.952       .  S
C793        C794   1.459       .  A
C793        C798   1.419       .  A
C793       Br800   1.940       .  S
C794        C795   1.454       .  A
C795        C796   1.415       .  A
C795       Br802   1.924       .  S
C796        C797   1.395       .  A
C796       Br801   1.941       .  S
C797        C798   1.395       .  A
C798       Br799   1.937       .  S
C803        C804   1.452       .  A
C803        C808   1.423       .  A
C803       Br810   1.929       .  S
C804        C805   1.458       .  A
C805        C806   1.415       .  A
C805       Br812   1.947   1_556  S
C806        C807   1.399       .  A
C806       Br811   1.948       .  S
C807        C808   1.398       .  A
C808       Br809   1.934       .  S
C813        C814   1.457       .  A
C813        C818   1.413       .  A
C813       Br820   1.942       .  S
C814        C815   1.455   1_556  A
C815        C816   1.420       .  A
C815       Br822   1.931       .  S
C816        C817   1.398   1_554  A
C816       Br821   1.938       .  S
C817        C818   1.394       .  A
C818       Br819   1.938       .  S
C823        C824   1.450       .  A
C823        C828   1.404   1_556  A
C823       Br830   1.935       .  S
C824        C825   1.456       .  A
C825        C826   1.423       .  A
C825       Br832   1.922       .  S
C826        C827   1.399       .  A
C826       Br831   1.936       .  S
C827        C828   1.398   1_556  A
C828       Br829   1.937       .  S
C833        C834   1.410       .  A
C833        C838   1.421       .  A
C833       Br840   1.929       .  S
C834        C835   1.405       .  A
C835        C836   1.404       .  A
C835       Br842   1.939       .  S
C836        C837   1.449       .  A
C836       Br841   1.952       .  S
C837        C838   1.445       .  A
C838       Br839   1.937       .  S
C843        C844   1.460       .  A
C843        C848   1.417       .  A
C843       Br850   1.952   1_655  S
C844        C845   1.428       .  A
C845        C846   1.408       .  A
C845       Br852   1.936       .  S
C846        C847   1.397       .  A
C846       Br851   1.925       .  S
C847        C848   1.406       .  A
C848       Br849   1.946       .  S
C853        C854   1.451       .  A
C853        C858   1.421       .  A
C853       Br860   1.916       .  S
C854        C855   1.447   1_455  A
C855        C856   1.400       .  A
C855       Br862   1.936   1_655  S
C856        C857   1.392       .  A
C856       Br861   1.940       .  S
C857        C858   1.394   1_655  A
C858       Br859   1.933       .  S
C863        C864   1.466   1_455  A
C863        C868   1.417       .  A
C863       Br870   1.950       .  S
C864        C865   1.441       .  A
C865        C866   1.409       .  A
C865       Br872   1.923       .  S
C866        C867   1.394       .  A
C866       Br871   1.936       .  S
C867        C868   1.395   1_655  A
C868       Br869   1.939       .  S
C873        C874   1.445       .  A
C873        C878   1.400       .  A
C873       Br880   1.931   1_554  S
C874        C875   1.454       .  A
C875        C876   1.424       .  A
C875       Br882   1.929       .  S
C876        C877   1.402       .  A
C876       Br881   1.931       .  S
C877        C878   1.399       .  A
C878       Br879   1.938       .  S
C883        C884   1.456       .  A
C883        C888   1.416       .  A
C883       Br890   1.936       .  S
C884        C885   1.455       .  A
C885        C886   1.415       .  A
C885       Br892   1.929       .  S
C886        C887   1.394       .  A
C886       Br891   1.937       .  S
C887        C888   1.396       .  A
C888       Br889   1.936       .  S
C893        C894   1.453       .  A
C893        C898   1.417       .  A
C893       Br900   1.939       .  S
C894        C895   1.457   1_556  A
C895        C896   1.413       .  A
C895       Br902   1.946       .  S
C896        C897   1.394   1_554  A
C896       Br901   1.940       .  S
C897        C898   1.399       .  A
C898       Br899   1.937       .  S
C903        C904   1.455       .  A
C903        C908   1.426       .  A
C903       Br910   1.933       .  S
C904        C905   1.442   1_554  A
C905        C906   1.396       .  A
C905       Br912   1.939   1_556  S
C906        C907   1.397   1_556  A
C906       Br911   1.933       .  S
C907        C908   1.404       .  A
C908       Br909   1.930       .  S
C913        C914   1.454       .  A
C913        C918   1.412       .  A
C913       Br920   1.936   1_455  S
C914        C915   1.461       .  A
C915        C916   1.415       .  A
C915       Br922   1.947       .  S
C916        C917   1.392       .  A
C916       Br921   1.941       .  S
C917        C918   1.395       .  A
C918       Br919   1.940       .  S
C923        C924   1.454       .  A
C923        C928   1.413       .  A
C923       Br930   1.935       .  S
C924        C925   1.462       .  A
C925        C926   1.417       .  A
C925       Br932   1.945       .  S
C926        C927   1.393       .  A
C926       Br931   1.941       .  S
C927        C928   1.397       .  A
C928       Br929   1.941       .  S
C933        C934   1.453       .  A
C933        C938   1.414       .  A
C933       Br940   1.936       .  S
C934        C935   1.460   1_655  A
C935        C936   1.410       .  A
C935       Br942   1.949       .  S
C936        C937   1.391   1_455  A
C936       Br941   1.940       .  S
C937        C938   1.397       .  A
C938       Br939   1.938       .  S
C943        C944   1.392       .  A
C943        C948   1.416       .  A
C943       Br950   1.941       .  S
C944        C945   1.397   1_655  A
C945        C946   1.414       .  A
C945       Br952   1.940       .  S
C946        C947   1.454   1_455  A
C946       Br951   1.935       .  S
C947        C948   1.462       .  A
C948       Br949   1.947       .  S
C953        C954   1.449       .  A
C953        C958   1.415       .  A
C953       Br960   1.948       .  S
C954        C955   1.445       .  A
C955        C956   1.410       .  A
C955       Br962   1.938       .  S
C956        C957   1.397       .  A
C956       Br961   1.935       .  S
C957        C958   1.403       .  A
C958       Br959   1.934       .  S
C963        C964   1.403       .  A
C963        C968   1.407       .  A
C963       Br970   1.924       .  S
C964        C965   1.412       .  A
C965        C966   1.421       .  A
C965       Br972   1.946       .  S
C966        C967   1.457       .  A
C966       Br971   1.949   1_565  S
C967        C968   1.419       .  A
C968       Br969   1.933       .  S
C973        C974   1.449       .  A
C973        C978   1.420       .  A
C973       Br980   1.911       .  S
C974        C975   1.449       .  A
C975        C976   1.402   1_545  A
C975       Br982   1.936       .  S
C976        C977   1.396   1_565  A
C976       Br981   1.940       .  S
C977        C978   1.398       .  A
C978       Br979   1.940       .  S
C983        C984   1.394   1_545  A
C983        C988   1.421       .  A
C983       Br990   1.938       .  S
C984        C985   1.393       .  A
C985        C986   1.411       .  A
C985       Br992   1.940       .  S
C986        C987   1.449       .  A
C986       Br991   1.930       .  S
C987        C988   1.469   1_565  A
C988       Br989   1.951       .  S
C993        C994   1.402       .  A
C993        C998   1.419       .  A
C993      Br1000   1.934       .  S
C994        C995   1.397       .  A
C995        C996   1.397       .  A
C995      Br1002   1.925       .  S
C996        C997   1.420       .  A
C996      Br1001   1.938       .  S
C997        C998   1.449       .  A
C998       Br999   1.935       .  S
C1003      C1004   1.429       .  A
C1003      C1008   1.419       .  A
C1003     Br1010   1.929       .  S
C1004      C1005   1.425       .  A
C1005      C1006   1.405       .  A
C1005     Br1012   1.937       .  S
C1006      C1007   1.407       .  A
C1006     Br1011   1.932       .  S
C1007      C1008   1.407       .  A
C1008     Br1009   1.926       .  S
C1013      C1014   1.453   1_565  A
C1013      C1018   1.416       .  A
C1013     Br1020   1.956       .  S
C1014      C1015   1.440       .  A
C1015      C1016   1.410       .  A
C1015     Br1022   1.920       .  S
C1016      C1017   1.401   1_545  A
C1016     Br1021   1.945       .  S
C1017      C1018   1.398       .  A
C1018     Br1019   1.933       .  S
C1023      C1024   1.404       .  A
C1023      C1028   1.410       .  A
C1023     Br1030   1.935       .  S
C1024      C1025   1.400   1_565  A
C1025      C1026   1.417       .  A
C1025     Br1032   1.934       .  S
C1026      C1027   1.451   1_545  A
C1026     Br1031   1.954       .  S
C1027      C1028   1.437       .  A
C1028     Br1029   1.933       .  S
C1033      C1034   1.455       .  A
C1033      C1038   1.422       .  A
C1033     Br1040   1.929       .  S
C1034      C1035   1.450       .  A
C1035      C1036   1.402       .  A
C1035     Br1042   1.936   1_455  S
C1036      C1037   1.396       .  A
C1036     Br1041   1.938       .  S
C1037      C1038   1.399       .  A
C1038     Br1039   1.932       .  S
C1043      C1044   1.453       .  A
C1043      C1048   1.417       .  A
C1043     Br1050   1.932       .  S
C1044      C1045   1.456       .  A
C1045      C1046   1.410       .  A
C1045     Br1052   1.946       .  S
C1046      C1047   1.394       .  A
C1046     Br1051   1.939       .  S
C1047      C1048   1.397       .  A
C1048     Br1049   1.938       .  S
C1053      C1054   1.455       .  A
C1053      C1058   1.418       .  A
C1053     Br1060   1.930       .  S
C1054      C1055   1.456   1_655  A
C1055      C1056   1.414       .  A
C1055     Br1062   1.944       .  S
C1056      C1057   1.395       .  A
C1056     Br1061   1.939       .  S
C1057      C1058   1.396   1_455  A
C1058     Br1059   1.939       .  S
C1063      C1064   1.455       .  A
C1063      C1068   1.421       .  A
C1063     Br1070   1.929       .  S
C1064      C1065   1.449       .  A
C1065      C1066   1.403   1_455  A
C1065     Br1072   1.935       .  S
C1066      C1067   1.398   1_655  A
C1066     Br1071   1.939       .  S
C1067      C1068   1.399       .  A
C1068     Br1069   1.934       .  S
C1073      C1074   1.453       .  A
C1073      C1078   1.411       .  A
C1073     Br1080   1.904   1_554  S
C1074      C1075   1.464       .  A
C1075      C1076   1.423       .  A
C1075     Br1082   1.921       .  S
C1076      C1077   1.394       .  A
C1076     Br1081   1.938       .  S
C1077      C1078   1.392       .  A
C1078     Br1079   1.945       .  S
C1083      C1084   1.462       .  A
C1083      C1088   1.428       .  A
C1083     Br1090   1.941       .  S
C1084      C1085   1.443       .  A
C1085      C1086   1.406       .  A
C1085     Br1092   1.934       .  S
C1086      C1087   1.396       .  A
C1086     Br1091   1.927       .  S
C1087      C1088   1.404       .  A
C1088     Br1089   1.935       .  S
C1093      C1094   1.459       .  A
C1093      C1098   1.414       .  A
C1093     Br1100   1.956       .  S
C1094      C1095   1.447       .  A
C1095      C1096   1.424   1_554  A
C1095     Br1102   1.943       .  S
C1096      C1097   1.404       .  A
C1096     Br1101   1.932       .  S
C1097      C1098   1.403   1_556  A
C1098     Br1099   1.949       .  S
C1103      C1104   1.457   1_554  A
C1103      C1108   1.420       .  A
C1103     Br1110   1.933       .  S
C1104      C1105   1.454       .  A
C1105      C1106   1.414       .  A
C1105     Br1112   1.932       .  S
C1106      C1107   1.395       .  A
C1106     Br1111   1.940       .  S
C1107      C1108   1.395   1_556  A
C1108     Br1109   1.941       .  S
C1113      C1114   1.453       .  A
C1113      C1118   1.412       .  A
C1113     Br1120   1.936   1_554  S
C1114      C1115   1.447       .  A
C1115      C1116   1.420       .  A
C1115     Br1122   1.927       .  S
C1116      C1117   1.397       .  A
C1116     Br1121   1.932       .  S
C1117      C1118   1.398       .  A
C1118     Br1119   1.947       .  S
C1123      C1124   1.438       .  A
C1123      C1128   1.408       .  A
C1123     Br1130   1.913       .  S
C1124      C1125   1.462       .  A
C1125      C1126   1.413       .  A
C1125     Br1132   1.948       .  S
C1126      C1127   1.390       .  A
C1126     Br1131   1.937       .  S
C1127      C1128   1.392       .  A
C1128     Br1129   1.939       .  S
C1133      C1134   1.458       .  A
C1133      C1138   1.416       .  A
C1133     Br1140   1.954       .  S
C1134      C1135   1.447   1_556  A
C1135      C1136   1.409       .  A
C1135     Br1142   1.940       .  S
C1136      C1137   1.395   1_554  A
C1136     Br1141   1.934       .  S
C1137      C1138   1.399       .  A
C1138     Br1139   1.937       .  S
C1143      C1144   1.462       .  A
C1143      C1148   1.433       .  A
C1143     Br1150   1.942       .  S
C1144      C1145   1.423   1_554  A
C1145      C1146   1.393       .  A
C1145     Br1152   1.936   1_556  S
C1146      C1147   1.398       .  A
C1146     Br1151   1.934       .  S
C1147      C1148   1.402   1_556  A
C1148     Br1149   1.935       .  S
