geometry optimzed in LAMMPS
_audit_creation_date              2020-12-01 
_audit_creation_method            'lammps2cif' 
_symmetry_space_group_name_H-M    'P1' 
_symmetry_Int_Tables_number       1 
_symmetry_cell_setting            triclinic 
loop_ 
_symmetry_equiv_pos_as_xyz 
  x,y,z 
_cell_length_a                    37.83855734 
_cell_length_b                    39.38753219350602 
_cell_length_c                    19.493244161837453 
_cell_angle_alpha                 90.0020715101994 
_cell_angle_beta                  89.99739598896429 
_cell_angle_gamma                 91.9159197273958 
loop_ 
_atom_site_label 
_atom_site_type_symbol 
_atom_site_fract_x 
_atom_site_fract_y 
_atom_site_fract_z 
_atom_site_charge 
N1          N  0.16295769  0.46620007  0.32938636    -0.01000
C2          C  0.15337788  0.44887028  0.38679191     0.01600
C3          C  0.17199905  0.46105129  0.44264846    -0.21300
C4          C  0.19235384  0.48809683  0.41907261    -0.21500
C5          C  0.18406676  0.49271642  0.35009066     0.01500
H6          H  0.17033574  0.45195873  0.49484793     0.15300
H7          H  0.20741216  0.50551723  0.45161413     0.15300
N8          N  0.16798742  0.44917007  0.26650879    -0.01000
C9          C  0.18452314  0.41913774  0.25755380     0.01600
C10         C  0.18002053  0.40821263  0.19102535    -0.21300
C11         C  0.15997026  0.43160190  0.15853917    -0.21500
C12         C  0.15384889  0.45754550  0.20505662     0.01500
H13         H  0.19180981  0.38650449  0.16726135     0.15300
H14         H  0.15418880  0.43120196  0.10430460     0.15300
N15         N  0.16820701  0.01912811  0.20182349    -0.01000
C16         C  0.17778673  0.03645789  0.14441813     0.01600
C17         C  0.15916563  0.02427717  0.08856111    -0.21300
C18         C  0.13881049  0.99723125  0.11213747    -0.21500
C19         C  0.14709792  0.99261192  0.18111945     0.01500
H20         H  0.16082837  0.03336851  0.03636794     0.15300
H21         H  0.12375270  0.47981129  0.07959703     0.15300
N22         N  0.16317713  0.03615809  0.26470072    -0.01000
C23         C  0.14664150  0.06619019  0.27365528     0.01600
C24         C  0.15114392  0.07711561  0.34018417    -0.21300
C25         C  0.17119437  0.05372604  0.37266964    -0.21500
C26         C  0.17731568  0.02778252  0.32615316     0.01500
H27         H  0.13935584  0.09882108  0.36394509     0.15300
H28         H  0.17697592  0.55412641  0.42690838     0.15300
N29         N  0.16295904  0.21619953  0.20182187    -0.01000
C30         C  0.15337973  0.19886893  0.14441595     0.01600
C31         C  0.17200333  0.21104690  0.08855819    -0.21300
C32         C  0.19236025  0.23809128  0.11213412    -0.21500
C33         C  0.18407194  0.24271302  0.18111731     0.01500
H34         H  0.17034142  0.20195323  0.03635964     0.15300
H35         H  0.20742032  0.25550830  0.07959459     0.15300
N36         N  0.16798337  0.19917145  0.26469971    -0.01000
C37         C  0.18451618  0.16913823  0.27365463     0.01600
C38         C  0.18000638  0.15821330  0.34018053    -0.21300
C39         C  0.15995404  0.18160370  0.37266527    -0.21500
C40         C  0.15383942  0.20754788  0.32615032     0.01500
H41         H  0.19179239  0.13650489  0.36394351     0.15300
H42         H  0.15416761  0.18120447  0.42690100     0.15300
N43         N  0.16318135  0.28615700  0.26650910    -0.01000
C44         C  0.14664855  0.31618990  0.25755413     0.01600
C45         C  0.15115825  0.32711487  0.19102767    -0.21300
C46         C  0.17121037  0.30372461  0.15854394    -0.21500
C47         C  0.17732521  0.27778043  0.20505756     0.01500
H48         H  0.13937202  0.34882293  0.16726613     0.15300
H49         H  0.17699806  0.30412404  0.10429728     0.15300
N50         N  0.16820560  0.26912869  0.32938708    -0.01000
C51         C  0.17778485  0.28645944  0.38679372     0.01600
C52         C  0.15916129  0.27428118  0.44265013    -0.21300
C53         C  0.13880440  0.24723717  0.41907530    -0.21500
C54         C  0.14709276  0.24261537  0.35009170     0.01500
H55         H  0.16082351  0.28337697  0.49485953     0.15300
H56         H  0.12374385  0.22981992  0.45161399     0.15300
N57         N  0.32962507  0.46619945  0.45182218    -0.01000
C58         C  0.32004557  0.44886868  0.39441634     0.01600
C59         C  0.33866910  0.46104649  0.33855870    -0.21300
C60         C  0.35902650  0.48809092  0.36213402    -0.21500
C61         C  0.35073798  0.49271238  0.93111768     0.01500
H62         H  0.33700688  0.45195281  0.28635946     0.15300
H63         H  0.37408500  0.50550522  0.82959937     0.15300
N64         N  0.00131608  0.44917124  0.51469996    -0.01000
C65         C  0.01784840  0.41913837  0.52365425     0.01600
C66         C  0.01333880  0.40821292  0.59018131    -0.21300
C67         C  0.99328695  0.43160349  0.12266486    -0.21500
C68         C  0.98717234  0.45754777  0.07615146     0.01500
H69         H  0.02512255  0.38650857  0.61393817     0.15300
H70         H  0.98749917  0.43120404  0.17691250     0.15300
N71         N  0.32984858  0.03615683  0.01650922    -0.01000
C72         C  0.31331605  0.06619005  0.00755437     0.01600
C73         C  0.31782608  0.07711484  0.94102807    -0.21300
C74         C  0.33787789  0.05372448  0.90854436    -0.21500
C75         C  0.34399240  0.02778023  0.95505776     0.01500
H76         H  0.30604000  0.09882380  0.91726579     0.15300
H77         H  0.34366455  0.55412401  0.85430678     0.15300
N78         N  0.00153946  0.01912860  0.07938704    -0.01000
C79         C  0.01111888  0.03645923  0.13679311     0.01600
C80         C  0.99249525  0.02428124  0.19265102    -0.21300
C81         C  0.97213822  0.99723719  0.16907524    -0.21500
C82         C  0.98042625  0.99261526  0.10009228     0.01500
H83         H  0.99415755  0.03337535  0.24484975     0.15300
H84         H  0.95707618  0.47981864  0.20161769     0.15300
N85         N  0.32984338  0.28615790  0.51470001    -0.01000
C86         C  0.31330749  0.31618991  0.52365497     0.01600
C87         C  0.31780981  0.32711541  0.59018392    -0.21300
C88         C  0.33786063  0.30372586  0.62266988    -0.21500
C89         C  0.34398196  0.27778262  0.07615261     0.01500
H90         H  0.30602231  0.34881972  0.61394421     0.15300
H91         H  0.34364196  0.30412625  0.17690521     0.15300
N92         N  0.00153975  0.26912799  0.45182291    -0.01000
C93         C  0.01111934  0.28645786  0.39441694     0.01600
C94         C  0.99249831  0.27427667  0.33856122    -0.21300
C95         C  0.97214356  0.24723104  0.36213669    -0.21500
C96         C  0.98043078  0.24261139  0.93111871     0.01500
H97         H  0.99416150  0.28337003  0.28635746     0.15300
H98         H  0.95708513  0.22980992  0.82959450     0.15300
N99         N  0.32962477  0.21620008  0.07938568    -0.01000
C100        C  0.32004522  0.19887026  0.13679097     0.01600
C101        C  0.33866631  0.21105123  0.19264759    -0.21300
C102        C  0.35902133  0.23809718  0.16907144    -0.21500
C103        C  0.35073362  0.24271638  0.10008937     0.01500
H104        H  0.33700361  0.20195924  0.24484361     0.15300
H105        H  0.37407739  0.25551572  0.20160877     0.15300
N106        N  0.00132125  0.19916996  0.01650798    -0.01000
C107        C  0.01785720  0.16913798  0.00755361     0.01600
C108        C  0.01335484  0.15821269  0.94102454    -0.21300
C109        C  0.99330436  0.18160183  0.90853924    -0.21500
C110        C  0.98718277  0.20754536  0.95505553     0.01500
H111        H  0.02514368  0.13650587  0.91726324     0.15300
H112        H  0.98752232  0.18120174  0.85429636     0.15300
O113        O  0.10356527  0.41769910  0.34309225    -0.70400
O114        O  0.03383917  0.33859236  0.34722668    -0.71400
O115        O  0.03801430  0.40420948  0.41042810    -0.60000
O116        O  0.09957095  0.35295499  0.28143687    -0.68500
O117        O  0.12648293  0.33111846  0.37078085    -0.68000
O118        O  0.06492607  0.38237283  0.49977221    -0.59300
O119        O  0.06093201  0.31762885  0.43811668    -0.71800
O120        O  0.13065791  0.39673560  0.43398255    -0.70600
Cu121      Cu  0.06769297  0.37911408  0.34253668     1.04600
Cu122      Cu  0.09680416  0.35621385  0.43867242     1.04300
C123        C  0.12809383  0.41964543  0.38797026     0.95800
C124        C  0.03640342  0.31568250  0.39323890     0.94900
C125        C  0.04139874  0.40145789  0.47522500     0.87000
C126        C  0.12309849  0.33387009  0.30598406     0.93300
O127        O  0.26623297  0.35295703  0.49977079    -0.70400
O128        O  0.20468213  0.40421115  0.37078225    -0.71400
O129        O  0.20050356  0.33859517  0.43398223    -0.60000
O130        O  0.27023084  0.41770015  0.43811735    -0.68500
O131        O  0.29732697  0.39673280  0.34722699    -0.66000
O132        O  0.22759964  0.31762775  0.34309185    -0.59300
O133        O  0.23159752  0.38237086  0.28143833    -0.71800
O134        O  0.29314834  0.33111676  0.41042685    -0.70600
Cu135      Cu  0.23435787  0.37911605  0.43867252     1.04600
Cu136      Cu  0.26347268  0.35621190  0.34253659     1.04300
C137        C  0.28976078  0.33387009  0.47522388     0.95800
C138        C  0.20806966  0.40145777  0.30598524     0.94900
C139        C  0.20306931  0.31568355  0.38797023     0.87000
C140        C  0.29476121  0.41964438  0.39323895     0.93300
O141        O  0.13066107  0.14673296  0.09722692    -0.70400
O142        O  0.06093369  0.06762783  0.09309185    -0.71400
O143        O  0.06493162  0.13237105  0.03143831    -0.60000
O144        O  0.12648239  0.08111700  0.16042707    -0.68500
O145        O  0.09956709  0.10295728  0.24977101    -0.68000
O146        O  0.03801627  0.15421135  0.12078212    -0.59300
O147        O  0.03383762  0.08859524  0.18398215    -0.71800
O148        O  0.10356500  0.16770027  0.18811703    -0.70600
Cu149      Cu  0.09680673  0.10621204  0.09253670     1.04600
Cu150      Cu  0.06769200  0.12911623  0.18867245     1.04300
C151        C  0.12809530  0.16964459  0.14323861     0.95800
C152        C  0.03640342  0.06568352  0.13797034     0.94900
C153        C  0.04140368  0.15145784  0.05598501     0.87000
C154        C  0.12309488  0.08387042  0.22522418     0.93300
O155        O  0.23159356  0.13237316  0.24977218    -0.70400
O156        O  0.29315025  0.08111862  0.12078109    -0.71400
O157        O  0.29732537  0.14673577  0.18398230    -0.60000
O158        O  0.22759927  0.06762903  0.18811704    -0.68500
O159        O  0.20050653  0.08859251  0.09722687    -0.68000
O160        O  0.27023268  0.16769922  0.09309246    -0.59300
O161        O  0.26623849  0.10295515  0.03143695    -0.71800
O162        O  0.20468175  0.15420964  0.16042806    -0.70600
Cu163      Cu  0.26347157  0.10621407  0.18867243     1.04600
Cu164      Cu  0.23436045  0.12911422  0.09253676     1.04300
C165        C  0.20806612  0.15145818  0.22522482     0.95800
C166        C  0.28976596  0.08387018  0.05598430     0.94900
C167        C  0.29476130  0.16964553  0.13797023     0.87000
C168        C  0.20307077  0.06568262  0.14323896     0.93300
N169        N  0.16295751  0.46619994  0.82938553    -0.01000
C170        C  0.15337781  0.44887027  0.88679126     0.01600
C171        C  0.17199885  0.46105102  0.94264832    -0.21300
C172        C  0.19235407  0.48809705  0.91907199    -0.21500
C173        C  0.18406667  0.49271622  0.85008992     0.01500
H174        H  0.17033639  0.45195980  0.99484084     0.15300
H175        H  0.20740999  0.50551500  0.95160936     0.15300
N176        N  0.16798736  0.44917018  0.76650874    -0.01000
C177        C  0.18452317  0.41913762  0.75755362     0.01600
C178        C  0.18002050  0.40821273  0.69102558    -0.21300
C179        C  0.15997025  0.43160175  0.65853950    -0.21500
C180        C  0.15384888  0.45754540  0.70505612     0.01500
H181        H  0.19181032  0.38650368  0.66726109     0.15300
H182        H  0.15418804  0.43120157  0.60430222     0.15300
N183        N  0.16820698  0.01912811  0.70182349    -0.01000
C184        C  0.17778668  0.03645792  0.64441803     0.01600
C185        C  0.15916558  0.02427703  0.58856099    -0.21300
C186        C  0.13881044  0.99723120  0.61213729    -0.21500
C187        C  0.14709790  0.99261180  0.68111908     0.01500
H188        H  0.16082855  0.03336864  0.53636738     0.15300
H189        H  0.12375191  0.47981018  0.57959415     0.15300
N190        N  0.16317704  0.03615804  0.76470063    -0.01000
C191        C  0.14664151  0.06619041  0.77365527     0.01600
C192        C  0.15114388  0.07711568  0.84018381    -0.21300
C193        C  0.17119428  0.05372632  0.87266979    -0.21500
C194        C  0.17731564  0.02778269  0.82615301     0.01500
H195        H  0.13935574  0.09882247  0.86394566     0.15300
H196        H  0.17697537  0.55412643  0.92690622     0.15300
N197        N  0.16295898  0.21619960  0.70182171    -0.01000
C198        C  0.15337966  0.19886884  0.64441598     0.01600
C199        C  0.17200318  0.21104682  0.58855830    -0.21300
C200        C  0.19236017  0.23809120  0.61213388    -0.21500
C201        C  0.18407185  0.24271295  0.68111719     0.01500
H202        H  0.17034094  0.20195286  0.53635893     0.15300
H203        H  0.20742039  0.25550818  0.57959435     0.15300
N204        N  0.16798331  0.19917137  0.76469969    -0.01000
C205        C  0.18451602  0.16913838  0.77365430     0.01600
C206        C  0.18000628  0.15821329  0.84018060    -0.21300
C207        C  0.15995397  0.18160390  0.87266505    -0.21500
C208        C  0.15383924  0.20754793  0.82615028     0.01500
H209        H  0.19179138  0.13650616  0.86394192     0.15300
H210        H  0.15416716  0.18120449  0.92690284     0.15300
N211        N  0.16318132  0.28615689  0.76650893    -0.01000
C212        C  0.14664866  0.31618979  0.75755430     0.01600
C213        C  0.15115831  0.32711490  0.69102761    -0.21300
C214        C  0.17121042  0.30372447  0.65854424    -0.21500
C215        C  0.17732529  0.27778040  0.70505744     0.01500
H216        H  0.13937274  0.34882208  0.66726764     0.15300
H217        H  0.17699841  0.30412395  0.60429507     0.15300
N218        N  0.16820565  0.26912862  0.82938681    -0.01000
C219        C  0.17778492  0.28645930  0.88679275     0.01600
C220        C  0.15916131  0.27428120  0.94265018    -0.21300
C221        C  0.13880429  0.24723698  0.91907459    -0.21500
C222        C  0.14709267  0.24261527  0.85009147     0.01500
H223        H  0.16082365  0.28337511  0.99485060     0.15300
H224        H  0.12374375  0.22981977  0.95161458     0.15300
N225        N  0.32962504  0.46619938  0.95182197    -0.01000
C226        C  0.32004554  0.44886862  0.89441590     0.01600
C227        C  0.33866901  0.46104648  0.83855898    -0.21300
C228        C  0.35902643  0.48809080  0.86213356    -0.21500
C229        C  0.35073814  0.49271257  0.43111763     0.01500
H230        H  0.33700676  0.45195177  0.78635268     0.15300
H231        H  0.37408557  0.50550625  0.32959686     0.15300
N232        N  0.00131612  0.44917107  0.01470040    -0.01000
C233        C  0.01784861  0.41913808  0.02365472     0.01600
C234        C  0.01333866  0.40821305  0.09018119    -0.21300
C235        C  0.99328667  0.43160388  0.62266478    -0.21500
C236        C  0.98717227  0.45754796  0.57615152     0.01500
H237        H  0.02512449  0.38650460  0.11394265     0.15300
H238        H  0.98749920  0.43120409  0.67691268     0.15300
N239        N  0.32984850  0.03615678  0.51650951    -0.01000
C240        C  0.31331598  0.06618990  0.50755462     0.01600
C241        C  0.31782581  0.07711499  0.44102854    -0.21300
C242        C  0.33787788  0.05372433  0.40854401    -0.21500
C243        C  0.34399247  0.02778016  0.45505869     0.01500
H244        H  0.30604014  0.09882232  0.41726664     0.15300
H245        H  0.34366457  0.55412355  0.35430525     0.15300
N246        N  0.00153952  0.01912863  0.57938757    -0.01000
C247        C  0.01111897  0.03645946  0.63679390     0.01600
C248        C  0.99249541  0.02428128  0.69265032    -0.21300
C249        C  0.97213835  0.99723737  0.66907602    -0.21500
C250        C  0.98042655  0.99261542  0.60009248     0.01500
H251        H  0.99415812  0.03337698  0.74485957     0.15300
H252        H  0.95707875  0.47982168  0.70161296     0.15300
N253        N  0.32984328  0.28615793  0.01470046    -0.01000
C254        C  0.31330734  0.31619014  0.02365522     0.01600
C255        C  0.31780979  0.32711542  0.09018375    -0.21300
C256        C  0.33786045  0.30372611  0.12266959    -0.21500
C257        C  0.34398199  0.27778256  0.57615245     0.01500
H258        H  0.30602114  0.34882211  0.11394606     0.15300
H259        H  0.34364167  0.30412621  0.67690377     0.15300
N260        N  0.00153973  0.26912796  0.95182299    -0.01000
C261        C  0.01111934  0.28645762  0.89441788     0.01600
C262        C  0.99249807  0.27427662  0.83856041    -0.21300
C263        C  0.97214338  0.24723088  0.86213737    -0.21500
C264        C  0.98043097  0.24261157  0.43111879     0.01500
H265        H  0.99416096  0.28336784  0.78636869     0.15300
H266        H  0.95708604  0.22981124  0.32959786     0.15300
N267        N  0.32962487  0.21620012  0.57938558    -0.01000
C268        C  0.32004530  0.19887037  0.63679129     0.01600
C269        C  0.33866652  0.21105140  0.69264784    -0.21300
C270        C  0.35902145  0.23809732  0.66907136    -0.21500
C271        C  0.35073378  0.24271652  0.60008948     0.01500
H272        H  0.33700361  0.20195979  0.74484341     0.15300
H273        H  0.37407832  0.25551628  0.70160976     0.15300
N274        N  0.00132125  0.19917017  0.51650860    -0.01000
C275        C  0.01785715  0.16913805  0.50755381     0.01600
C276        C  0.01335491  0.15821262  0.44102500    -0.21300
C277        C  0.99330424  0.18160205  0.40853943    -0.21500
C278        C  0.98718264  0.20754546  0.45505595     0.01500
H279        H  0.02514288  0.13650718  0.41726475     0.15300
H280        H  0.98752233  0.18120169  0.35430113     0.15300
O281        O  0.10356532  0.41769915  0.84309236    -0.70400
O282        O  0.03383914  0.33859233  0.84722641    -0.71400
O283        O  0.03801421  0.40420940  0.91042807    -0.60000
O284        O  0.09957099  0.35295497  0.78143689    -0.68500
O285        O  0.12648293  0.33111854  0.87078095    -0.68000
O286        O  0.06492606  0.38237301  0.99977220    -0.59300
O287        O  0.06093195  0.31762895  0.93811665    -0.71800
O288        O  0.13065792  0.39673564  0.93398255    -0.70600
Cu289      Cu  0.06769301  0.37911410  0.84253662     1.04600
Cu290      Cu  0.09680416  0.35621392  0.93867236     1.04300
C291        C  0.12809388  0.41964542  0.88797017     0.95800
C292        C  0.03640330  0.31568258  0.89323869     0.94900
C293        C  0.04139860  0.40145787  0.97522500     0.87000
C294        C  0.12309843  0.33386998  0.80598411     0.93300
O295        O  0.26623291  0.35295712  0.99977066    -0.70400
O296        O  0.20468217  0.40421124  0.87078217    -0.71400
O297        O  0.20050353  0.33859522  0.93398197    -0.60000
O298        O  0.27023085  0.41770023  0.93811717    -0.68500
O299        O  0.29732700  0.39673276  0.84722713    -0.66000
O300        O  0.22759973  0.31762773  0.84309176    -0.59300
O301        O  0.23159751  0.38237091  0.78143857    -0.71800
O302        O  0.29314835  0.33111673  0.91042684    -0.70600
Cu303      Cu  0.23435789  0.37911609  0.93867243     1.04600
Cu304      Cu  0.26347264  0.35621188  0.84253667     1.04300
C305        C  0.28976085  0.33387025  0.97522387     0.95800
C306        C  0.20806955  0.40145787  0.80598548     0.94900
C307        C  0.20306933  0.31568357  0.88797011     0.87000
C308        C  0.29476121  0.41964441  0.89323880     0.93300
O309        O  0.13066117  0.14673294  0.59722699    -0.70400
O310        O  0.06093372  0.06762797  0.59309199    -0.71400
O311        O  0.06493175  0.13237102  0.53143830    -0.60000
O312        O  0.12648240  0.08111691  0.66042706    -0.68500
O313        O  0.09956701  0.10295740  0.74977079    -0.68000
O314        O  0.03801619  0.15421143  0.62078199    -0.59300
O315        O  0.03383761  0.08859538  0.68398203    -0.71800
O316        O  0.10356489  0.16770042  0.68811701    -0.70600
Cu317      Cu  0.09680677  0.10621201  0.59253669     1.04600
Cu318      Cu  0.06769194  0.12911628  0.68867234     1.04300
C319        C  0.12809528  0.16964463  0.64323870     0.95800
C320        C  0.03640345  0.06568364  0.63797034     0.94900
C321        C  0.04140381  0.15145795  0.55598501     0.87000
C322        C  0.12309492  0.08387049  0.72522401     0.93300
O323        O  0.23159356  0.13237317  0.74977203    -0.70400
O324        O  0.29315031  0.08111858  0.62078115    -0.71400
O325        O  0.29732550  0.14673571  0.68398232    -0.60000
O326        O  0.22759934  0.06762906  0.68811684    -0.68500
O327        O  0.20050669  0.08859250  0.59722692    -0.68000
O328        O  0.27023272  0.16769920  0.59309216    -0.59300
O329        O  0.26623854  0.10295508  0.53143703    -0.71800
O330        O  0.20468176  0.15420967  0.66042783    -0.70600
Cu331      Cu  0.26347159  0.10621405  0.68867245     1.04600
Cu332      Cu  0.23436047  0.12911419  0.59253672     1.04300
C333        C  0.20806618  0.15145818  0.72522468     0.95800
C334        C  0.28976596  0.08387011  0.55598437     0.94900
C335        C  0.29476125  0.16964561  0.63797007     0.87000
C336        C  0.20307081  0.06568264  0.64323903     0.93300
N337        N  0.16295786  0.96620006  0.32938632    -0.01000
C338        C  0.15337818  0.94887025  0.38679196     0.01600
C339        C  0.17199936  0.96105135  0.44264817    -0.21300
C340        C  0.19235415  0.98809682  0.41907241    -0.21500
C341        C  0.18406694  0.99271636  0.35009048     0.01500
H342        H  0.17033617  0.95195843  0.49484959     0.15300
H343        H  0.20741248  0.00551714  0.45161293     0.15300
N344        N  0.16798757  0.94917013  0.26650884    -0.01000
C345        C  0.18452330  0.91913797  0.25755403     0.01600
C346        C  0.18002079  0.90821262  0.19102532    -0.21300
C347        C  0.15997029  0.93160216  0.15853923    -0.21500
C348        C  0.15384905  0.95754566  0.20505657     0.01500
H349        H  0.19180906  0.88650680  0.16726355     0.15300
H350        H  0.15418909  0.93120197  0.10430501     0.15300
N351        N  0.16820670  0.51912810  0.20182346    -0.01000
C352        C  0.17778641  0.53645779  0.14441804     0.01600
C353        C  0.15916521  0.52427697  0.08856085    -0.21300
C354        C  0.13881024  0.49723116  0.11213770    -0.21500
C355        C  0.14709756  0.49261166  0.18111925     0.01500
H356        H  0.16082819  0.53336830  0.03636820     0.15300
H357        H  0.12375404  0.97981305  0.07959932     0.15300
N358        N  0.16317692  0.53615801  0.26470064    -0.01000
C359        C  0.14664129  0.56619027  0.27365531     0.01600
C360        C  0.15114369  0.57711562  0.34018415    -0.21300
C361        C  0.17119407  0.55372608  0.37266976    -0.21500
C362        C  0.17731543  0.52778260  0.32615327     0.01500
H363        H  0.13935554  0.59882111  0.36394502     0.15300
H364        H  0.17697622  0.05412631  0.42690813     0.15300
N365        N  0.16295885  0.71619945  0.20182172    -0.01000
C366        C  0.15337949  0.69886877  0.14441520     0.01600
C367        C  0.17200303  0.71104695  0.08855865    -0.21300
C368        C  0.19236008  0.73809101  0.11213335    -0.21500
C369        C  0.18407173  0.74271284  0.18111692     0.01500
H370        H  0.17034050  0.70195177  0.03635109     0.15300
H371        H  0.20742046  0.75550800  0.07959473     0.15300
N372        N  0.16798316  0.69917137  0.26469948    -0.01000
C373        C  0.18451588  0.66913817  0.27365457     0.01600
C374        C  0.18000601  0.65821324  0.34018051    -0.21300
C375        C  0.15995388  0.68160370  0.37266514    -0.21500
C376        C  0.15383923  0.70754787  0.32615050     0.01500
H377        H  0.19179199  0.63650487  0.36394333     0.15300
H378        H  0.15416697  0.68120426  0.42690279     0.15300
N379        N  0.16318146  0.78615689  0.26650909    -0.01000
C380        C  0.14664876  0.81618988  0.25755409     0.01600
C381        C  0.15115861  0.82711482  0.19102763    -0.21300
C382        C  0.17121062  0.80372440  0.15854391    -0.21500
C383        C  0.17732537  0.77778034  0.20505746     0.01500
H384        H  0.13937315  0.84882249  0.16726674     0.15300
H385        H  0.17699815  0.80412378  0.10429719     0.15300
N386        N  0.16820570  0.76912878  0.32938689    -0.01000
C387        C  0.17778516  0.78645947  0.38679356     0.01600
C388        C  0.15916163  0.77428147  0.44264990    -0.21300
C389        C  0.13880451  0.74723728  0.41907553    -0.21500
C390        C  0.14709294  0.74261544  0.35009169     0.01500
H391        H  0.16082401  0.78337712  0.49485904     0.15300
H392        H  0.12374509  0.72982116  0.45161239     0.15300
N393        N  0.32962538  0.96619940  0.45182234    -0.01000
C394        C  0.32004591  0.94886873  0.39441625     0.01600
C395        C  0.33866946  0.96104666  0.33855878    -0.21300
C396        C  0.35902672  0.98809082  0.36213423    -0.21500
C397        C  0.35073840  0.99271258  0.93111709     0.01500
H398        H  0.33700712  0.95195261  0.28635908     0.15300
H399        H  0.37408695  0.00550748  0.82959498     0.15300
N400        N  0.00131627  0.94917129  0.51469989    -0.01000
C401        C  0.01784866  0.91913814  0.52365463     0.01600
C402        C  0.01333900  0.90821303  0.59018121    -0.21300
C403        C  0.99328719  0.93160351  0.12266503    -0.21500
C404        C  0.98717254  0.95754778  0.07615171     0.01500
H405        H  0.02512403  0.88650610  0.61394059     0.15300
H406        H  0.98749941  0.93120409  0.17691255     0.15300
N407        N  0.32984830  0.53615678  0.01650916    -0.01000
C408        C  0.31331582  0.56618976  0.00755500     0.01600
C409        C  0.31782563  0.57711508  0.94102855    -0.21300
C410        C  0.33787783  0.55372423  0.90854406    -0.21500
C411        C  0.34399216  0.52778005  0.95505876     0.01500
H412        H  0.30604103  0.59882087  0.91726846     0.15300
H413        H  0.34366589  0.05412389  0.85429713     0.15300
N414        N  0.00153925  0.51912854  0.07938767    -0.01000
C415        C  0.01111871  0.53645924  0.13679293     0.01600
C416        C  0.99249498  0.52428126  0.19265094    -0.21300
C417        C  0.97213802  0.49723722  0.16907497    -0.21500
C418        C  0.98042609  0.49261523  0.10009220     0.01500
H419        H  0.99415708  0.53337532  0.24484926     0.15300
H420        H  0.95707646  0.97981875  0.20161767     0.15300
N421        N  0.32984350  0.78615798  0.51470025    -0.01000
C422        C  0.31330754  0.81619016  0.52365524     0.01600
C423        C  0.31781003  0.82711549  0.59018378    -0.21300
C424        C  0.33786061  0.80372617  0.62267000    -0.21500
C425        C  0.34398205  0.77778269  0.07615283     0.01500
H426        H  0.30602170  0.84882206  0.61394599     0.15300
H427        H  0.34364267  0.80412650  0.17690784     0.15300
N428        N  0.00153989  0.76912809  0.45182305    -0.01000
C429        C  0.01111946  0.78645779  0.39441716     0.01600
C430        C  0.99249832  0.77427665  0.33856096    -0.21300
C431        C  0.97214348  0.74723098  0.36213709    -0.21500
C432        C  0.98043100  0.74261164  0.93111922     0.01500
H433        H  0.99416110  0.78336905  0.28636091     0.15300
H434        H  0.95708722  0.72981227  0.82959873     0.15300
N435        N  0.32962460  0.71620012  0.07938582    -0.01000
C436        C  0.32004489  0.69887036  0.13679079     0.01600
C437        C  0.33866613  0.71105115  0.19264775    -0.21300
C438        C  0.35902126  0.73809724  0.16907138    -0.21500
C439        C  0.35073356  0.74271634  0.10008914     0.01500
H440        H  0.33700357  0.70195997  0.24484122     0.15300
H441        H  0.37407688  0.75551485  0.20160773     0.15300
N442        N  0.00132118  0.69916997  0.01650794    -0.01000
C443        C  0.01785690  0.66913794  0.00755386     0.01600
C444        C  0.01335461  0.65821265  0.94102493    -0.21300
C445        C  0.99330411  0.68160193  0.90853924    -0.21500
C446        C  0.98718265  0.70754550  0.95505611     0.01500
H447        H  0.02514313  0.63650585  0.91726300     0.15300
H448        H  0.98752231  0.68120176  0.85430179     0.15300
O449        O  0.10356551  0.91769913  0.34309229    -0.70400
O450        O  0.03383934  0.83859233  0.34722669    -0.71400
O451        O  0.03801456  0.90420951  0.41042814    -0.60000
O452        O  0.09957125  0.85295507  0.28143684    -0.68500
O453        O  0.12648308  0.83111853  0.37078085    -0.68000
O454        O  0.06492638  0.88237288  0.49977219    -0.59300
O455        O  0.06093213  0.81762884  0.43811673    -0.71800
O456        O  0.13065825  0.89673569  0.43398241    -0.70600
Cu457      Cu  0.06769322  0.87911412  0.34253671     1.04600
Cu458      Cu  0.09680439  0.85621388  0.43867237     1.04300
C459        C  0.12809409  0.91964552  0.38797020     0.95800
C460        C  0.03640356  0.81568249  0.39323883     0.94900
C461        C  0.04139894  0.90145792  0.47522493     0.87000
C462        C  0.12309872  0.83387009  0.30598408     0.93300
O463        O  0.26623318  0.85295711  0.49977074    -0.70400
O464        O  0.20468241  0.90421122  0.37078226    -0.71400
O465        O  0.20050377  0.83859522  0.43398196    -0.60000
O466        O  0.27023110  0.91770023  0.43811744    -0.68500
O467        O  0.29732722  0.89673287  0.34722711    -0.66000
O468        O  0.22759986  0.81762792  0.34309176    -0.59300
O469        O  0.23159776  0.88237093  0.28143831    -0.71800
O470        O  0.29314856  0.83111679  0.41042684    -0.70600
Cu471      Cu  0.23435812  0.87911609  0.43867242     1.04600
Cu472      Cu  0.26347289  0.85621195  0.34253656     1.04300
C473        C  0.28976100  0.83387016  0.47522385     0.95800
C474        C  0.20806993  0.90145783  0.30598521     0.94900
C475        C  0.20306965  0.81568356  0.38797019     0.87000
C476        C  0.29476140  0.91964452  0.39323905     0.93300
O477        O  0.13066086  0.64673283  0.09722694    -0.70400
O478        O  0.06093360  0.56762779  0.09309199    -0.71400
O479        O  0.06493137  0.63237099  0.03143839    -0.60000
O480        O  0.12648232  0.58111692  0.16042710    -0.68500
O481        O  0.09956679  0.60295732  0.24977086    -0.68000
O482        O  0.03801603  0.65421134  0.12078212    -0.59300
O483        O  0.03383736  0.58859530  0.18398210    -0.71800
O484        O  0.10356478  0.66770037  0.18811702    -0.70600
Cu485      Cu  0.09680653  0.60621200  0.09253674     1.04600
Cu486      Cu  0.06769174  0.62911625  0.18867246     1.04300
C487        C  0.12809505  0.66964455  0.14323866     0.95800
C488        C  0.03640315  0.56568365  0.13797041     0.94900
C489        C  0.04140354  0.65145787  0.05598501     0.87000
C490        C  0.12309471  0.58387039  0.22522411     0.93300
O491        O  0.23159337  0.63237317  0.24977209    -0.70400
O492        O  0.29315000  0.58111865  0.12078114    -0.71400
O493        O  0.29732506  0.64673575  0.18398232    -0.60000
O494        O  0.22759899  0.56762913  0.18811696    -0.68500
O495        O  0.20050639  0.58859246  0.09722643    -0.68000
O496        O  0.27023255  0.66769908  0.09309199    -0.59300
O497        O  0.26623825  0.60295505  0.03143673    -0.71800
O498        O  0.20468157  0.65420961  0.16042781    -0.70600
Cu499      Cu  0.26347134  0.60621406  0.18867247     1.04600
Cu500      Cu  0.23436022  0.62911417  0.09253654     1.04300
C501        C  0.20806585  0.65145805  0.22522459     0.95800
C502        C  0.28976570  0.58387021  0.05598413     0.94900
C503        C  0.29476100  0.66964551  0.13797021     0.87000
C504        C  0.20307047  0.56568272  0.14323882     0.93300
N505        N  0.16295788  0.96620008  0.82938589    -0.01000
C506        C  0.15337814  0.94887045  0.88679096     0.01600
C507        C  0.17199940  0.96105129  0.94264855    -0.21300
C508        C  0.19235432  0.98809718  0.91907154    -0.21500
C509        C  0.18406708  0.99271660  0.85009022     0.01500
H510        H  0.17033671  0.95196069  0.99483747     0.15300
H511        H  0.20741185  0.00551742  0.95161370     0.15300
N512        N  0.16798761  0.94917015  0.76650864    -0.01000
C513        C  0.18452341  0.91913770  0.75755357     0.01600
C514        C  0.18002070  0.90821263  0.69102513    -0.21300
C515        C  0.15997044  0.93160190  0.65853921    -0.21500
C516        C  0.15384918  0.95754552  0.70505629     0.01500
H517        H  0.19181008  0.88650423  0.66726106     0.15300
H518        H  0.15418841  0.93120186  0.60430278     0.15300
N519        N  0.16820668  0.51912799  0.70182328    -0.01000
C520        C  0.17778641  0.53645778  0.64441808     0.01600
C521        C  0.15916515  0.52427682  0.58856094    -0.21300
C522        C  0.13881022  0.49723118  0.61213737    -0.21500
C523        C  0.14709753  0.49261157  0.68111874     0.01500
H524        H  0.16082817  0.53336858  0.53636787     0.15300
H525        H  0.12375343  0.97981187  0.57959746     0.15300
N526        N  0.16317687  0.53615787  0.76470055    -0.01000
C527        C  0.14664141  0.56618998  0.77365483     0.01600
C528        C  0.15114361  0.57711573  0.84018387    -0.21300
C529        C  0.17119428  0.55372585  0.87266967    -0.21500
C530        C  0.17731545  0.52778240  0.82615305     0.01500
H531        H  0.13935730  0.59881878  0.86394148     0.15300
H532        H  0.17697574  0.05412667  0.92690604     0.15300
N533        N  0.16295879  0.71619954  0.70182176    -0.01000
C534        C  0.15337941  0.69886888  0.64441599     0.01600
C535        C  0.17200302  0.71104679  0.58855825    -0.21300
C536        C  0.19236004  0.73809108  0.61213394    -0.21500
C537        C  0.18407178  0.74271290  0.68111711     0.01500
H538        H  0.17034074  0.70195297  0.53635919     0.15300
H539        H  0.20742055  0.75550830  0.57959381     0.15300
N540        N  0.16798314  0.69917131  0.76469970    -0.01000
C541        C  0.18451590  0.66913820  0.77365451     0.01600
C542        C  0.18000596  0.65821335  0.84018052    -0.21300
C543        C  0.15995387  0.68160370  0.87266500    -0.21500
C544        C  0.15383918  0.70754782  0.82615035     0.01500
H545        H  0.19179228  0.63650462  0.86394385     0.15300
H546        H  0.15416689  0.68120448  0.92690406     0.15300
N547        N  0.16318147  0.78615688  0.76650902    -0.01000
C548        C  0.14664880  0.81618985  0.75755430     0.01600
C549        C  0.15115847  0.82711498  0.69102776    -0.21300
C550        C  0.17121046  0.80372445  0.65854408    -0.21500
C551        C  0.17732532  0.77778037  0.70505728     0.01500
H552        H  0.13937321  0.84882183  0.66726844     0.15300
H553        H  0.17699830  0.80412413  0.60429534     0.15300
N554        N  0.16820574  0.76912867  0.82938666    -0.01000
C555        C  0.17778504  0.78645927  0.88679273     0.01600
C556        C  0.15916145  0.77428123  0.94265020    -0.21300
C557        C  0.13880428  0.74723703  0.91907461    -0.21500
C558        C  0.14709280  0.74261523  0.85009157     0.01500
H559        H  0.16082336  0.78337518  0.99484980     0.15300
H560        H  0.12374388  0.72982027  0.95161416     0.15300
N561        N  0.32962535  0.96619939  0.95182221    -0.01000
C562        C  0.32004586  0.94886859  0.89441531     0.01600
C563        C  0.33866937  0.96104668  0.83855936    -0.21300
C564        C  0.35902657  0.98809056  0.86213336    -0.21500
C565        C  0.35073847  0.99271271  0.43111723     0.01500
H566        H  0.33700667  0.95195039  0.78634785     0.15300
H567        H  0.37408707  0.00550797  0.32959406     0.15300
N568        N  0.00131630  0.94917122  0.01469992    -0.01000
C569        C  0.01784886  0.91913802  0.02365506     0.01600
C570        C  0.01333895  0.90821307  0.09018135    -0.21300
C571        C  0.99328711  0.93160362  0.62266491    -0.21500
C572        C  0.98717254  0.95754785  0.57615182     0.01500
H573        H  0.02512494  0.88650442  0.11394319     0.15300
H574        H  0.98749955  0.93120402  0.67691349     0.15300
N575        N  0.32984816  0.53615681  0.51650922    -0.01000
C576        C  0.31331561  0.56619015  0.50755426     0.01600
C577        C  0.31782552  0.57711490  0.44102844    -0.21300
C578        C  0.33787749  0.55372449  0.40854392    -0.21500
C579        C  0.34399212  0.52778024  0.45505851     0.01500
H580        H  0.30603866  0.59882469  0.41726427     0.15300
H581        H  0.34366478  0.05412385  0.35430615     0.15300
N582        N  0.00153928  0.51912869  0.57938702    -0.01000
C583        C  0.01111883  0.53645932  0.63679290     0.01600
C584        C  0.99249534  0.52428160  0.69265070    -0.21300
C585        C  0.97213791  0.49723717  0.66907545    -0.21500
C586        C  0.98042622  0.49261549  0.60009181     0.01500
H587        H  0.99415754  0.53337520  0.74484914     0.15300
H588        H  0.95707762  0.97981983  0.70161567     0.15300
N589        N  0.32984349  0.78615812  0.01470058    -0.01000
C590        C  0.31330748  0.81619019  0.02365529     0.01600
C591        C  0.31781004  0.82711539  0.09018378    -0.21300
C592        C  0.33786047  0.80372628  0.12266956    -0.21500
C593        C  0.34398207  0.77778266  0.57615267     0.01500
H594        H  0.30602035  0.84882316  0.11394720     0.15300
H595        H  0.34364199  0.80412656  0.67690409     0.15300
N596        N  0.00154001  0.76912799  0.95182321    -0.01000
C597        C  0.01111953  0.78645779  0.89441804     0.01600
C598        C  0.99249854  0.77427692  0.83856066    -0.21300
C599        C  0.97214351  0.74723094  0.86213730    -0.21500
C600        C  0.98043101  0.74261162  0.43111899     0.01500
H601        H  0.99416126  0.78336801  0.78636829     0.15300
H602        H  0.95708610  0.72981157  0.32959855     0.15300
N603        N  0.32962468  0.71620005  0.57938569    -0.01000
C604        C  0.32004510  0.69887029  0.63679103     0.01600
C605        C  0.33866616  0.71105122  0.69264821    -0.21300
C606        C  0.35902115  0.73809715  0.66907173    -0.21500
C607        C  0.35073373  0.74271647  0.60008985     0.01500
H608        H  0.33700328  0.70195987  0.74484076     0.15300
H609        H  0.37407801  0.75551651  0.70161191     0.15300
N610        N  0.00132114  0.69917014  0.51650858    -0.01000
C611        C  0.01785696  0.66913797  0.50755392     0.01600
C612        C  0.01335469  0.65821267  0.44102534    -0.21300
C613        C  0.99330410  0.68160201  0.40853927    -0.21500
C614        C  0.98718260  0.70754548  0.45505611     0.01500
H615        H  0.02514275  0.63650653  0.41726451     0.15300
H616        H  0.98752275  0.68120176  0.35430297     0.15300
O617        O  0.10356553  0.91769918  0.84309231    -0.70400
O618        O  0.03383937  0.83859231  0.84722660    -0.71400
O619        O  0.03801450  0.90420945  0.91042823    -0.60000
O620        O  0.09957112  0.85295512  0.78143688    -0.68500
O621        O  0.12648309  0.83111846  0.87078088    -0.68000
O622        O  0.06492633  0.88237290  0.99977222    -0.59300
O623        O  0.06093220  0.81762892  0.93811671    -0.71800
O624        O  0.13065816  0.89673560  0.93398239    -0.70600
Cu625      Cu  0.06769321  0.87911414  0.84253666     1.04600
Cu626      Cu  0.09680439  0.85621389  0.93867233     1.04300
C627        C  0.12809417  0.91964539  0.88797019     0.95800
C628        C  0.03640355  0.81568256  0.89323882     0.94900
C629        C  0.04139885  0.90145788  0.97522496     0.87000
C630        C  0.12309862  0.83387010  0.80598407     0.93300
O631        O  0.26623310  0.85295704  0.99977071    -0.70400
O632        O  0.20468237  0.90421115  0.87078211    -0.71400
O633        O  0.20050367  0.83859511  0.93398200    -0.60000
O634        O  0.27023110  0.91770015  0.93811734    -0.68500
O635        O  0.29732711  0.89673279  0.84722711    -0.66000
O636        O  0.22759982  0.81762775  0.84309164    -0.59300
O637        O  0.23159775  0.88237083  0.78143822    -0.71800
O638        O  0.29314853  0.83111679  0.91042680    -0.70600
Cu639      Cu  0.23435805  0.87911603  0.93867248     1.04600
Cu640      Cu  0.26347284  0.85621191  0.84253660     1.04300
C641        C  0.28976094  0.83387016  0.97522386     0.95800
C642        C  0.20806987  0.90145777  0.80598513     0.94900
C643        C  0.20306946  0.81568354  0.88797001     0.87000
C644        C  0.29476132  0.91964450  0.89323906     0.93300
O645        O  0.13066081  0.64673290  0.59722700    -0.70400
O646        O  0.06093359  0.56762777  0.59309187    -0.71400
O647        O  0.06493137  0.63237088  0.53143834    -0.60000
O648        O  0.12648219  0.58111689  0.66042695    -0.68500
O649        O  0.09956678  0.60295722  0.74977077    -0.68000
O650        O  0.03801594  0.65421133  0.62078205    -0.59300
O651        O  0.03383734  0.58859531  0.68398196    -0.71800
O652        O  0.10356461  0.66770031  0.68811711    -0.70600
Cu653      Cu  0.09680649  0.60621196  0.59253667     1.04600
Cu654      Cu  0.06769166  0.62911622  0.68867236     1.04300
C655        C  0.12809497  0.66964456  0.64323874     0.95800
C656        C  0.03640319  0.56568364  0.63797013     0.94900
C657        C  0.04140354  0.65145793  0.55598514     0.87000
C658        C  0.12309470  0.58387038  0.72522402     0.93300
O659        O  0.23159339  0.63237311  0.74977208    -0.70400
O660        O  0.29315005  0.58111864  0.62078103    -0.71400
O661        O  0.29732525  0.64673574  0.68398235    -0.60000
O662        O  0.22759908  0.56762906  0.68811687    -0.68500
O663        O  0.20050647  0.58859261  0.59722691    -0.68000
O664        O  0.27023247  0.66769918  0.59309219    -0.59300
O665        O  0.26623827  0.60295514  0.53143690    -0.71800
O666        O  0.20468153  0.65420968  0.66042795    -0.70600
Cu667      Cu  0.26347134  0.60621405  0.68867239     1.04600
Cu668      Cu  0.23436022  0.62911425  0.59253664     1.04300
C669        C  0.20806595  0.65145811  0.72522477     0.95800
C670        C  0.28976569  0.58387014  0.55598427     0.94900
C671        C  0.29476102  0.66964557  0.63797023     0.87000
C672        C  0.20307053  0.56568272  0.64323901     0.93300
N673        N  0.49629098  0.46620005  0.32938625    -0.01000
C674        C  0.48671123  0.44887026  0.38679187     0.01600
C675        C  0.50533237  0.46105118  0.44264842    -0.21300
C676        C  0.52568729  0.48809692  0.41907253    -0.21500
C677        C  0.51740007  0.49271637  0.35009034     0.01500
H678        H  0.50366955  0.45195889  0.49484689     0.15300
H679        H  0.54074418  0.50551623  0.45161200     0.15300
N680        N  0.50132074  0.44917006  0.26650877    -0.01000
C681        C  0.51785651  0.41913770  0.25755371     0.01600
C682        C  0.51335379  0.40821262  0.19102524    -0.21300
C683        C  0.49330354  0.43160189  0.15853923    -0.21500
C684        C  0.48718229  0.45754549  0.20505650     0.01500
H685        H  0.52514315  0.38650425  0.16726115     0.15300
H686        H  0.48752160  0.43120189  0.10430359     0.15300
N687        N  0.50154035  0.01912810  0.20182346    -0.01000
C688        C  0.51112005  0.03645794  0.14441815     0.01600
C689        C  0.49249898  0.02427717  0.08856108    -0.21300
C690        C  0.47214374  0.99723120  0.11213733    -0.21500
C691        C  0.48043130  0.99261191  0.18111939     0.01500
H692        H  0.49416171  0.03336848  0.03636817     0.15300
H693        H  0.45708631  0.47981153  0.07959737     0.15300
N694        N  0.49651041  0.03615801  0.26470066    -0.01000
C695        C  0.47997493  0.06619011  0.27365509     0.01600
C696        C  0.48447724  0.07711572  0.34018407    -0.21300
C697        C  0.50452783  0.05372596  0.37266967    -0.21500
C698        C  0.51064903  0.02778245  0.32615302     0.01500
H699        H  0.47269040  0.09881982  0.36394342     0.15300
H700        H  0.51030879  0.55412646  0.42690688     0.15300
N701        N  0.49629232  0.21619955  0.20182191    -0.01000
C702        C  0.48671300  0.19886894  0.14441597     0.01600
C703        C  0.50533657  0.21104685  0.08855825    -0.21300
C704        C  0.52569352  0.23809123  0.11213404    -0.21500
C705        C  0.51740524  0.24271301  0.18111725     0.01500
H706        H  0.50367439  0.20195309  0.03635929     0.15300
H707        H  0.54075371  0.25550827  0.07959450     0.15300
N708        N  0.50131667  0.19917148  0.26469968    -0.01000
C709        C  0.51784939  0.16913830  0.27365450     0.01600
C710        C  0.51333963  0.15821330  0.34018073    -0.21300
C711        C  0.49328734  0.18160392  0.37266521    -0.21500
C712        C  0.48717261  0.20754793  0.32615044     0.01500
H713        H  0.52512481  0.13650594  0.36394231     0.15300
H714        H  0.48750056  0.18120451  0.42690271     0.15300
N715        N  0.49651465  0.28615701  0.26650901    -0.01000
C716        C  0.47998190  0.31618992  0.25755411     0.01600
C717        C  0.48449166  0.32711487  0.19102764    -0.21300
C718        C  0.50454372  0.30372460  0.15854403    -0.21500
C719        C  0.51065860  0.27778043  0.20505758     0.01500
H720        H  0.47270540  0.34882306  0.16726588     0.15300
H721        H  0.51033165  0.30412413  0.10429689     0.15300
N722        N  0.50153892  0.26912867  0.32938712    -0.01000
C723        C  0.51111822  0.28645945  0.38679365     0.01600
C724        C  0.49249467  0.27428120  0.44265007    -0.21300
C725        C  0.47213779  0.24723723  0.41907541    -0.21500
C726        C  0.48042606  0.24261540  0.35009177     0.01500
H727        H  0.49415732  0.28337697  0.49486004     0.15300
H728        H  0.45707704  0.22981975  0.45161449     0.15300
N729        N  0.66295840  0.46619946  0.45182216    -0.01000
C730        C  0.65337888  0.44886871  0.39441637     0.01600
C731        C  0.67200235  0.46104648  0.33855870    -0.21300
C732        C  0.69235979  0.48809089  0.36213392    -0.21500
C733        C  0.68407150  0.49271248  0.93111756     0.01500
H734        H  0.67034010  0.45195275  0.28635946     0.15300
H735        H  0.70741961  0.50550644  0.82959741     0.15300
N736        N  0.33464944  0.44917122  0.51470008    -0.01000
C737        C  0.35118188  0.41913832  0.52365452     0.01600
C738        C  0.34667214  0.40821300  0.59018123    -0.21300
C739        C  0.32662023  0.43160352  0.12266491    -0.21500
C740        C  0.32050569  0.45754780  0.07615151     0.01500
H741        H  0.35845712  0.38650710  0.61393983     0.15300
H742        H  0.32083258  0.43120406  0.17691225     0.15300
N743        N  0.66318187  0.03615682  0.01650914    -0.01000
C744        C  0.64664934  0.06619002  0.00755433     0.01600
C745        C  0.65115936  0.07711484  0.94102804    -0.21300
C746        C  0.67121115  0.05372448  0.90854431    -0.21500
C747        C  0.67732572  0.02778023  0.95505777     0.01500
H748        H  0.63937330  0.09882383  0.91726579     0.15300
H749        H  0.67699776  0.55412396  0.85430651     0.15300
N750        N  0.33487275  0.01912861  0.07938715    -0.01000
C751        C  0.34445229  0.03645924  0.13679309     0.01600
C752        C  0.32582868  0.02428129  0.19265092    -0.21300
C753        C  0.30547156  0.99723720  0.16907545    -0.21500
C754        C  0.31375967  0.99261526  0.10009240     0.01500
H755        H  0.32749135  0.03337547  0.24485026     0.15300
H756        H  0.29041074  0.47981973  0.20161591     0.15300
N757        N  0.66317668  0.28615786  0.51470009    -0.01000
C758        C  0.64664082  0.31618991  0.52365512     0.01600
C759        C  0.65114322  0.32711535  0.59018406    -0.21300
C760        C  0.67119396  0.30372584  0.62266977    -0.21500
C761        C  0.67731528  0.27778262  0.07615258     0.01500
H762        H  0.63935552  0.34882001  0.61394457     0.15300
H763        H  0.67697517  0.30412619  0.17690518     0.15300
N764        N  0.33487321  0.26912801  0.45182292    -0.01000
C765        C  0.34445269  0.28645793  0.39441693     0.01600
C766        C  0.32583170  0.27427681  0.33856128    -0.21300
C767        C  0.30547682  0.24723100  0.36213671    -0.21500
C768        C  0.31376417  0.24261143  0.93111899     0.01500
H769        H  0.32749461  0.28337002  0.28635785     0.15300
H770        H  0.29041979  0.22981105  0.82959664     0.15300
N771        N  0.66295820  0.21620012  0.07938582    -0.01000
C772        C  0.65337865  0.19887031  0.13679105     0.01600
C773        C  0.67199982  0.21105138  0.19264770    -0.21300
C774        C  0.69235459  0.23809718  0.16907137    -0.21500
C775        C  0.68406713  0.24271650  0.10008960     0.01500
H776        H  0.67033696  0.20195916  0.24484414     0.15300
H777        H  0.70741218  0.25551704  0.20161121     0.15300
N778        N  0.33465467  0.19916992  0.01650784    -0.01000
C779        C  0.35119057  0.16913788  0.00755339     0.01600
C780        C  0.34668819  0.15821276  0.94102434    -0.21300
C781        C  0.32663786  0.18160175  0.90853928    -0.21500
C782        C  0.32051606  0.20754531  0.95505537     0.01500
H783        H  0.35847808  0.13650468  0.91726166     0.15300
H784        H  0.32085501  0.18120168  0.85429411     0.15300
O785        O  0.43689867  0.41769917  0.34309243    -0.70400
O786        O  0.36717250  0.33859238  0.34722656    -0.71400
O787        O  0.37134761  0.40420945  0.41042813    -0.60000
O788        O  0.43290422  0.35295510  0.28143692    -0.68500
O789        O  0.45981623  0.33111841  0.37078083    -0.68000
O790        O  0.39825939  0.38237294  0.49977222    -0.59300
O791        O  0.39426528  0.31762890  0.43811668    -0.71800
O792        O  0.46399125  0.39673554  0.43398251    -0.70600
Cu793      Cu  0.40102633  0.37911412  0.34253673     1.04600
Cu794      Cu  0.43013750  0.35621385  0.43867241     1.04300
C795        C  0.46142727  0.41964537  0.38797028     0.95800
C796        C  0.36973673  0.31568255  0.39323885     0.94900
C797        C  0.37473201  0.40145792  0.47522496     0.87000
C798        C  0.45643172  0.33387011  0.30598401     0.93300
O799        O  0.59956626  0.35295704  0.49977071    -0.70400
O800        O  0.53801544  0.40421108  0.37078221    -0.71400
O801        O  0.53383688  0.33859517  0.43398220    -0.60000
O802        O  0.60356412  0.41770017  0.43811730    -0.68500
O803        O  0.63066037  0.39673280  0.34722708    -0.66000
O804        O  0.56093304  0.31762776  0.34309187    -0.59300
O805        O  0.56493094  0.38237086  0.28143835    -0.71800
O806        O  0.62648177  0.33111672  0.41042689    -0.70600
Cu807      Cu  0.56769117  0.37911606  0.43867250     1.04600
Cu808      Cu  0.59680602  0.35621189  0.34253662     1.04300
C809        C  0.62309417  0.33387012  0.47522389     0.95800
C810        C  0.54140301  0.40145773  0.30598522     0.94900
C811        C  0.53640267  0.31568357  0.38797019     0.87000
C812        C  0.62809453  0.41964440  0.39323901     0.93300
O813        O  0.46399447  0.14673296  0.09722699    -0.70400
O814        O  0.39426712  0.06762786  0.09309188    -0.71400
O815        O  0.39826507  0.13237105  0.03143839    -0.60000
O816        O  0.45981582  0.08111698  0.16042709    -0.68500
O817        O  0.43290039  0.10295728  0.24977097    -0.68000
O818        O  0.37134958  0.15421130  0.12078208    -0.59300
O819        O  0.36717095  0.08859525  0.18398213    -0.71800
O820        O  0.43689827  0.16770029  0.18811696    -0.70600
Cu821      Cu  0.43014008  0.10621203  0.09253675     1.04600
Cu822      Cu  0.40102530  0.12911624  0.18867245     1.04300
C823        C  0.46142861  0.16964461  0.14323863     0.95800
C824        C  0.36973680  0.06568354  0.13797028     0.94900
C825        C  0.37473709  0.15145782  0.05598498     0.87000
C826        C  0.45642828  0.08387046  0.22522418     0.93300
O827        O  0.56492694  0.13237318  0.24977218    -0.70400
O828        O  0.62648365  0.08111863  0.12078105    -0.71400
O829        O  0.63065884  0.14673577  0.18398233    -0.60000
O830        O  0.56093267  0.06762904  0.18811701    -0.68500
O831        O  0.53383994  0.08859255  0.09722687    -0.68000
O832        O  0.60356605  0.16769913  0.09309236    -0.59300
O833        O  0.59957186  0.10295515  0.03143694    -0.71800
O834        O  0.53801519  0.15420967  0.16042798    -0.70600
Cu835      Cu  0.59680493  0.10621407  0.18867245     1.04600
Cu836      Cu  0.56769381  0.12911421  0.09253672     1.04300
C837        C  0.54139949  0.15145816  0.22522478     0.95800
C838        C  0.62309932  0.08387016  0.05598426     0.94900
C839        C  0.62809465  0.16964555  0.13797025     0.87000
C840        C  0.53640413  0.06568267  0.14323899     0.93300
N841        N  0.49629091  0.46619996  0.82938555    -0.01000
C842        C  0.48671120  0.44887024  0.88679126     0.01600
C843        C  0.50533218  0.46105106  0.94264832    -0.21300
C844        C  0.52568746  0.48809709  0.91907210    -0.21500
C845        C  0.51739993  0.49271625  0.85008998     0.01500
H846        H  0.50366971  0.45195981  0.99484125     0.15300
H847        H  0.54074321  0.50551479  0.95160909     0.15300
N848        N  0.50132082  0.44917018  0.76650868    -0.01000
C849        C  0.51785643  0.41913761  0.75755378     0.01600
C850        C  0.51335397  0.40821263  0.69102567    -0.21300
C851        C  0.49330366  0.43160176  0.65853939    -0.21500
C852        C  0.48718223  0.45754546  0.70505622     0.01500
H853        H  0.52514333  0.38650412  0.66726178     0.15300
H854        H  0.48752202  0.43120159  0.60430376     0.15300
N855        N  0.50154035  0.01912814  0.70182349    -0.01000
C856        C  0.51112002  0.03645786  0.64441800     0.01600
C857        C  0.49249885  0.02427701  0.58856086    -0.21300
C858        C  0.47214382  0.99723116  0.61213742    -0.21500
C859        C  0.48043115  0.99261180  0.68111916     0.01500
H860        H  0.49416153  0.03336852  0.53636811     0.15300
H861        H  0.45708525  0.47980991  0.57959398     0.15300
N862        N  0.49651049  0.03615810  0.76470057    -0.01000
C863        C  0.47997476  0.06619051  0.77365538     0.01600
C864        C  0.48447725  0.07711564  0.84018371    -0.21300
C865        C  0.50452757  0.05372647  0.87266988    -0.21500
C866        C  0.51064886  0.02778274  0.82615306     0.01500
H867        H  0.47268806  0.09882372  0.86394707     0.15300
H868        H  0.51030869  0.55412635  0.92690607     0.15300
N869        N  0.49629230  0.21619961  0.70182167    -0.01000
C870        C  0.48671303  0.19886883  0.64441602     0.01600
C871        C  0.50533647  0.21104687  0.58855825    -0.21300
C872        C  0.52569356  0.23809121  0.61213379    -0.21500
C873        C  0.51740512  0.24271292  0.68111717     0.01500
H874        H  0.50367412  0.20195302  0.53635884     0.15300
H875        H  0.54075356  0.25550807  0.57959449     0.15300
N876        N  0.50131675  0.19917131  0.76469983    -0.01000
C877        C  0.51784943  0.16913828  0.77365442     0.01600
C878        C  0.51333968  0.15821333  0.84018063    -0.21300
C879        C  0.49328742  0.18160374  0.87266500    -0.21500
C880        C  0.48717266  0.20754786  0.82615027     0.01500
H881        H  0.52512572  0.13650513  0.86394338     0.15300
H882        H  0.48750035  0.18120442  0.92690331     0.15300
N883        N  0.49651473  0.28615687  0.76650902    -0.01000
C884        C  0.47998192  0.31618976  0.75755422     0.01600
C885        C  0.48449165  0.32711486  0.69102772    -0.21300
C886        C  0.50454368  0.30372445  0.65854421    -0.21500
C887        C  0.51065864  0.27778041  0.70505738     0.01500
H888        H  0.47270585  0.34882232  0.66726758     0.15300
H889        H  0.51033164  0.30412392  0.60429494     0.15300
N890        N  0.50153898  0.26912866  0.82938678    -0.01000
C891        C  0.51111828  0.28645934  0.88679280     0.01600
C892        C  0.49249466  0.27428125  0.94265017    -0.21300
C893        C  0.47213765  0.24723692  0.91907466    -0.21500
C894        C  0.48042604  0.24261521  0.85009151     0.01500
H895        H  0.49415691  0.28337526  0.99485045     0.15300
H896        H  0.45707725  0.22981985  0.95161439     0.15300
N897        N  0.66295842  0.46619940  0.95182195    -0.01000
C898        C  0.65337903  0.44886867  0.89441584     0.01600
C899        C  0.67200258  0.46104666  0.83855878    -0.21300
C900        C  0.69235979  0.48809083  0.86213376    -0.21500
C901        C  0.68407151  0.49271256  0.43111757     0.01500
H902        H  0.67034053  0.45195186  0.78635308     0.15300
H903        H  0.70741893  0.50550621  0.32959660     0.15300
N904        N  0.33464940  0.44917104  0.01470039    -0.01000
C905        C  0.35118183  0.41913808  0.02365461     0.01600
C906        C  0.34667209  0.40821307  0.09018128    -0.21300
C907        C  0.32662017  0.43160374  0.62266474    -0.21500
C908        C  0.32050550  0.45754785  0.57615155     0.01500
H909        H  0.35845769  0.38650509  0.11394228     0.15300
H910        H  0.32083232  0.43120404  0.67691359     0.15300
N911        N  0.66318188  0.03615668  0.51650969    -0.01000
C912        C  0.64664941  0.06618980  0.50755487     0.01600
C913        C  0.65115915  0.07711506  0.44102868    -0.21300
C914        C  0.67121144  0.05372426  0.40854400    -0.21500
C915        C  0.67732574  0.02778008  0.45505884     0.01500
H916        H  0.63937468  0.09882098  0.41726823     0.15300
H917        H  0.67699812  0.55412368  0.35430580     0.15300
N918        N  0.33487277  0.01912863  0.57938765    -0.01000
C919        C  0.34445221  0.03645944  0.63679396     0.01600
C920        C  0.32582852  0.02428110  0.69265047    -0.21300
C921        C  0.30547160  0.99723732  0.66907589    -0.21500
C922        C  0.31375981  0.99261532  0.60009263     0.01500
H923        H  0.32749105  0.03337688  0.74485941     0.15300
H924        H  0.29041090  0.47982068  0.70161456     0.15300
N925        N  0.66317665  0.28615793  0.01470050    -0.01000
C926        C  0.64664073  0.31619010  0.02365514     0.01600
C927        C  0.65114308  0.32711537  0.09018382    -0.21300
C928        C  0.67119381  0.30372612  0.12266966    -0.21500
C929        C  0.67731541  0.27778256  0.57615258     0.01500
H930        H  0.63935440  0.34882190  0.11394612     0.15300
H931        H  0.67697567  0.30412634  0.67690550     0.15300
N932        N  0.33487313  0.26912800  0.95182317    -0.01000
C933        C  0.34445271  0.28645768  0.89441792     0.01600
C934        C  0.32583149  0.27427676  0.83856052    -0.21300
C935        C  0.30547666  0.24723083  0.86213741    -0.21500
C936        C  0.31376438  0.24261167  0.43111907     0.01500
H937        H  0.32749384  0.28336779  0.78636944     0.15300
H938        H  0.29042066  0.22981229  0.32960009     0.15300
N939        N  0.66295817  0.21620010  0.57938549    -0.01000
C940        C  0.65337866  0.19887038  0.63679121     0.01600
C941        C  0.67199979  0.21105142  0.69264789    -0.21300
C942        C  0.69235474  0.23809732  0.66907143    -0.21500
C943        C  0.68406718  0.24271652  0.60008950     0.01500
H944        H  0.67033681  0.20195988  0.74484319     0.15300
H945        H  0.70741167  0.25551638  0.70161016     0.15300
N946        N  0.33465468  0.19917011  0.51650857    -0.01000
C947        C  0.35119049  0.16913803  0.50755394     0.01600
C948        C  0.34668831  0.15821251  0.44102516    -0.21300
C949        C  0.32663762  0.18160203  0.40853934    -0.21500
C950        C  0.32051600  0.20754547  0.45505607     0.01500
H951        H  0.35847605  0.13650733  0.41726513     0.15300
H952        H  0.32085628  0.18120176  0.35430261     0.15300
O953        O  0.43689868  0.41769906  0.84309220    -0.70400
O954        O  0.36717261  0.33859240  0.84722651    -0.71400
O955        O  0.37134768  0.40420945  0.91042801    -0.60000
O956        O  0.43290441  0.35295494  0.78143688    -0.68500
O957        O  0.45981639  0.33111856  0.87078094    -0.68000
O958        O  0.39825946  0.38237301  0.99977216    -0.59300
O959        O  0.39426534  0.31762891  0.93811661    -0.71800
O960        O  0.46399137  0.39673565  0.93398256    -0.70600
Cu961      Cu  0.40102638  0.37911409  0.84253657     1.04600
Cu962      Cu  0.43013755  0.35621390  0.93867233     1.04300
C963        C  0.46142722  0.41964543  0.88797014     0.95800
C964        C  0.36973673  0.31568261  0.89323871     0.94900
C965        C  0.37473202  0.40145788  0.97522498     0.87000
C966        C  0.45643186  0.33386995  0.80598415     0.93300
O967        O  0.59956634  0.35295705  0.99977066    -0.70400
O968        O  0.53801557  0.40421131  0.87078221    -0.71400
O969        O  0.53383694  0.33859528  0.93398202    -0.60000
O970        O  0.60356432  0.41770025  0.93811724    -0.68500
O971        O  0.63066031  0.39673281  0.84722703    -0.66000
O972        O  0.56093309  0.31762775  0.84309180    -0.59300
O973        O  0.56493085  0.38237081  0.78143856    -0.71800
O974        O  0.62648166  0.33111672  0.91042679    -0.70600
Cu975      Cu  0.56769125  0.37911610  0.93867245     1.04600
Cu976      Cu  0.59680597  0.35621187  0.84253666     1.04300
C977        C  0.62309426  0.33387023  0.97522384     0.95800
C978        C  0.54140299  0.40145787  0.80598546     0.94900
C979        C  0.53640270  0.31568363  0.88797011     0.87000
C980        C  0.62809461  0.41964445  0.89323871     0.93300
O981        O  0.46399450  0.14673298  0.59722699    -0.70400
O982        O  0.39426702  0.06762796  0.59309200    -0.71400
O983        O  0.39826503  0.13237100  0.53143823    -0.60000
O984        O  0.45981569  0.08111698  0.66042701    -0.68500
O985        O  0.43290042  0.10295746  0.74977080    -0.68000
O986        O  0.37134964  0.15421138  0.62078205    -0.59300
O987        O  0.36717101  0.08859536  0.68398212    -0.71800
O988        O  0.43689829  0.16770044  0.68811712    -0.70600
Cu989      Cu  0.43014009  0.10621204  0.59253666     1.04600
Cu990      Cu  0.40102531  0.12911626  0.68867237     1.04300
C991        C  0.46142865  0.16964465  0.64323871     0.95800
C992        C  0.36973676  0.06568363  0.63797043     0.94900
C993        C  0.37473721  0.15145794  0.55598502     0.87000
C994        C  0.45642827  0.08387049  0.72522396     0.93300
O995        O  0.56492694  0.13237310  0.74977201    -0.70400
O996        O  0.62648363  0.08111853  0.62078115    -0.71400
O997        O  0.63065878  0.14673574  0.68398226    -0.60000
O998        O  0.56093263  0.06762903  0.68811685    -0.68500
O999        O  0.53383997  0.08859243  0.59722679    -0.68000
O1000       O  0.60356602  0.16769925  0.59309213    -0.59300
O1001       O  0.59957188  0.10295510  0.53143701    -0.71800
O1002       O  0.53801503  0.15420968  0.66042790    -0.70600
Cu1003     Cu  0.59680492  0.10621401  0.68867246     1.04600
Cu1004     Cu  0.56769380  0.12911420  0.59253669     1.04300
C1005       C  0.54139961  0.15145820  0.72522475     0.95800
C1006       C  0.62309933  0.08387013  0.55598439     0.94900
C1007       C  0.62809456  0.16964562  0.63797001     0.87000
C1008       C  0.53640408  0.06568264  0.64323899     0.93300
N1009       N  0.49629119  0.96620002  0.32938630    -0.01000
C1010       C  0.48671154  0.94887025  0.38679195     0.01600
C1011       C  0.50533276  0.96105135  0.44264824    -0.21300
C1012       C  0.52568757  0.98809690  0.41907239    -0.21500
C1013       C  0.51740033  0.99271634  0.35009046     0.01500
H1014       H  0.50366987  0.95195856  0.49484866     0.15300
H1015       H  0.54074560  0.00551717  0.45161273     0.15300
N1016       N  0.50132089  0.94917014  0.26650886    -0.01000
C1017       C  0.51785666  0.91913795  0.25755394     0.01600
C1018       C  0.51335405  0.90821262  0.19102521    -0.21300
C1019       C  0.49330358  0.93160215  0.15853929    -0.21500
C1020       C  0.48718245  0.95754565  0.20505645     0.01500
H1021       H  0.52514241  0.88650659  0.16726336     0.15300
H1022       H  0.48752189  0.93120190  0.10430400     0.15300
N1023       N  0.50154003  0.51912812  0.20182350    -0.01000
C1024       C  0.51111976  0.53645782  0.14441809     0.01600
C1025       C  0.49249859  0.52427699  0.08856090    -0.21300
C1026       C  0.47214351  0.49723113  0.11213759    -0.21500
C1027       C  0.48043095  0.49261167  0.18111921     0.01500
H1028       H  0.49416158  0.53336830  0.03636845     0.15300
H1029       H  0.45708762  0.97981326  0.07959966     0.15300
N1030       N  0.49651017  0.53615800  0.26470064    -0.01000
C1031       C  0.47997454  0.56619027  0.27365529     0.01600
C1032       C  0.48447694  0.57711566  0.34018400    -0.21300
C1033       C  0.50452736  0.55372613  0.37266983    -0.21500
C1034       C  0.51064872  0.52778262  0.32615318     0.01500
H1035       H  0.47268889  0.59882113  0.36394495     0.15300
H1036       H  0.51030905  0.05412639  0.42690608     0.15300
N1037       N  0.49629215  0.71619948  0.20182167    -0.01000
C1038       C  0.48671280  0.69886879  0.14441517     0.01600
C1039       C  0.50533639  0.71104694  0.08855868    -0.21300
C1040       C  0.52569332  0.73809096  0.11213352    -0.21500
C1041       C  0.51740508  0.74271285  0.18111699     0.01500
H1042       H  0.50367385  0.70195174  0.03635086     0.15300
H1043       H  0.54075406  0.75550823  0.07959440     0.15300
N1044       N  0.50131644  0.69917138  0.26469942    -0.01000
C1045       C  0.51784915  0.66913827  0.27365440     0.01600
C1046       C  0.51333927  0.65821322  0.34018052    -0.21300
C1047       C  0.49328708  0.68160383  0.37266507    -0.21500
C1048       C  0.48717247  0.70754790  0.32615043     0.01500
H1049       H  0.52512435  0.63650601  0.36394208     0.15300
H1050       H  0.48750032  0.68120425  0.42690267     0.15300
N1051       N  0.49651477  0.78615690  0.26650904    -0.01000
C1052       C  0.47998200  0.81618997  0.25755395     0.01600
C1053       C  0.48449187  0.82711480  0.19102767    -0.21300
C1054       C  0.50454381  0.80372452  0.15854386    -0.21500
C1055       C  0.51065863  0.77778037  0.20505744     0.01500
H1056       H  0.47270550  0.84882359  0.16726553     0.15300
H1057       H  0.51033150  0.80412375  0.10429705     0.15300
N1058       N  0.50153897  0.76912876  0.32938694    -0.01000
C1059       C  0.51111833  0.78645941  0.38679355     0.01600
C1060       C  0.49249483  0.77428125  0.44265014    -0.21300
C1061       C  0.47213781  0.74723725  0.41907548    -0.21500
C1062       C  0.48042616  0.74261535  0.35009188     0.01500
H1063       H  0.49415707  0.78337698  0.49485867     0.15300
H1064       H  0.45707728  0.72982021  0.45161420     0.15300
N1065       N  0.66295872  0.96619939  0.45182234    -0.01000
C1066       C  0.65337921  0.94886874  0.39441627     0.01600
C1067       C  0.67200272  0.96104665  0.33855878    -0.21300
C1068       C  0.69235999  0.98809082  0.36213414    -0.21500
C1069       C  0.68407190  0.99271268  0.93111696     0.01500
H1070       H  0.67034033  0.95195256  0.28635908     0.15300
H1071       H  0.70742155  0.00550871  0.82959305     0.15300
N1072       N  0.33464967  0.94917132  0.51469995    -0.01000
C1073       C  0.35118212  0.91913819  0.52365478     0.01600
C1074       C  0.34667233  0.90821309  0.59018123    -0.21300
C1075       C  0.32662048  0.93160351  0.12266507    -0.21500
C1076       C  0.32050592  0.95754779  0.07615176     0.01500
H1077       H  0.35845769  0.88650573  0.61394115     0.15300
H1078       H  0.32083290  0.93120417  0.17691230     0.15300
N1079       N  0.66318155  0.53615679  0.01650909    -0.01000
C1080       C  0.64664915  0.56618974  0.00755499     0.01600
C1081       C  0.65115890  0.57711508  0.94102847    -0.21300
C1082       C  0.67121110  0.55372422  0.90854400    -0.21500
C1083       C  0.67732556  0.52778006  0.95505879     0.01500
H1084       H  0.63937431  0.59882070  0.91726850     0.15300
H1085       H  0.67699915  0.05412391  0.85429717     0.15300
N1086       N  0.33487257  0.51912856  0.07938760    -0.01000
C1087       C  0.34445208  0.53645928  0.13679286     0.01600
C1088       C  0.32582848  0.52428140  0.19265081    -0.21300
C1089       C  0.30547131  0.49723722  0.16907517    -0.21500
C1090       C  0.31375950  0.49261530  0.10009207     0.01500
H1091       H  0.32749084  0.53337531  0.24484955     0.15300
H1092       H  0.29040994  0.97981895  0.20161758     0.15300
N1093       N  0.66317683  0.78615798  0.51470023    -0.01000
C1094       C  0.64664083  0.81619012  0.52365527     0.01600
C1095       C  0.65114331  0.82711545  0.59018379    -0.21300
C1096       C  0.67119388  0.80372614  0.62267001    -0.21500
C1097       C  0.67731541  0.77778262  0.07615271     0.01500
H1098       H  0.63935495  0.84882202  0.61394592     0.15300
H1099       H  0.67697550  0.80412656  0.17690581     0.15300
N1100       N  0.33487324  0.76912808  0.45182312    -0.01000
C1101       C  0.34445285  0.78645782  0.39441723     0.01600
C1102       C  0.32583183  0.77427681  0.33856106    -0.21300
C1103       C  0.30547684  0.74723101  0.36213692    -0.21500
C1104       C  0.31376432  0.74261155  0.93111905     0.01500
H1105       H  0.32749482  0.78336910  0.28636078     0.15300
H1106       H  0.29041948  0.72981140  0.82959735     0.15300
N1107       N  0.66295795  0.71620012  0.07938579    -0.01000
C1108       C  0.65337831  0.69887035  0.13679071     0.01600
C1109       C  0.67199944  0.71105119  0.19264786    -0.21300
C1110       C  0.69235457  0.73809729  0.16907147    -0.21500
C1111       C  0.68406695  0.74271634  0.10008921     0.01500
H1112       H  0.67033680  0.70196010  0.24484103     0.15300
H1113       H  0.70741018  0.75551502  0.20160807     0.15300
N1114       N  0.33465448  0.69916990  0.01650792    -0.01000
C1115       C  0.35119035  0.66913786  0.00755376     0.01600
C1116       C  0.34668802  0.65821270  0.94102518    -0.21300
C1117       C  0.32663756  0.68160177  0.90853914    -0.21500
C1118       C  0.32051606  0.70754543  0.95505618     0.01500
H1119       H  0.35847758  0.63650480  0.91726172     0.15300
H1120       H  0.32085617  0.68120183  0.85430292     0.15300
O1121       O  0.43689886  0.91769918  0.34309232    -0.70400
O1122       O  0.36717264  0.83859235  0.34722671    -0.71400
O1123       O  0.37134789  0.90420950  0.41042819    -0.60000
O1124       O  0.43290452  0.85295508  0.28143686    -0.68500
O1125       O  0.45981635  0.83111850  0.37078082    -0.68000
O1126       O  0.39825967  0.88237296  0.49977225    -0.59300
O1127       O  0.39426543  0.81762890  0.43811679    -0.71800
O1128       O  0.46399161  0.89673568  0.43398239    -0.70600
Cu1129     Cu  0.40102654  0.87911413  0.34253673     1.04600
Cu1130     Cu  0.43013770  0.85621391  0.43867237     1.04300
C1131       C  0.46142747  0.91964550  0.38797019     0.95800
C1132       C  0.36973688  0.81568253  0.39323892     0.94900
C1133       C  0.37473222  0.90145794  0.47522495     0.87000
C1134       C  0.45643200  0.83387007  0.30598409     0.93300
O1135       O  0.59956647  0.85295710  0.49977074    -0.70400
O1136       O  0.53801572  0.90421117  0.37078222    -0.71400
O1137       O  0.53383706  0.83859517  0.43398199    -0.60000
O1138       O  0.60356437  0.91770024  0.43811746    -0.68500
O1139       O  0.63066049  0.89673289  0.34722713    -0.66000
O1140       O  0.56093313  0.81762787  0.34309184    -0.59300
O1141       O  0.56493109  0.88237089  0.28143829    -0.71800
O1142       O  0.62648185  0.83111680  0.41042683    -0.70600
Cu1143     Cu  0.56769141  0.87911608  0.43867241     1.04600
Cu1144     Cu  0.59680619  0.85621196  0.34253657     1.04300
C1145       C  0.62309429  0.83387014  0.47522384     0.95800
C1146       C  0.54140324  0.90145780  0.30598517     0.94900
C1147       C  0.53640284  0.81568355  0.38797021     0.87000
C1148       C  0.62809468  0.91964453  0.39323911     0.93300
O1149       O  0.46399413  0.64673284  0.09722692    -0.70400
O1150       O  0.39426690  0.56762781  0.09309195    -0.71400
O1151       O  0.39826470  0.63237093  0.03143841    -0.60000
O1152       O  0.45981559  0.58111692  0.16042711    -0.68500
O1153       O  0.43290005  0.60295730  0.24977087    -0.68000
O1154       O  0.37134929  0.65421139  0.12078210    -0.59300
O1155       O  0.36717064  0.58859532  0.18398203    -0.71800
O1156       O  0.43689810  0.66770037  0.18811705    -0.70600
Cu1157     Cu  0.43013982  0.60621199  0.09253672     1.04600
Cu1158     Cu  0.40102502  0.62911626  0.18867246     1.04300
C1159       C  0.46142835  0.66964457  0.14323864     0.95800
C1160       C  0.36973645  0.56568368  0.13797032     0.94900
C1161       C  0.37473690  0.65145791  0.05598502     0.87000
C1162       C  0.45642797  0.58387039  0.22522411     0.93300
O1163       O  0.56492675  0.63237314  0.24977210    -0.70400
O1164       O  0.62648343  0.58111869  0.12078109    -0.71400
O1165       O  0.63065850  0.64673580  0.18398238    -0.60000
O1166       O  0.56093239  0.56762909  0.18811690    -0.68500
O1167       O  0.53383973  0.58859253  0.09722664    -0.68000
O1168       O  0.60356588  0.66769905  0.09309195    -0.59300
O1169       O  0.59957152  0.60295497  0.03143672    -0.71800
O1170       O  0.53801487  0.65420966  0.16042783    -0.70600
Cu1171     Cu  0.59680470  0.60621406  0.18867246     1.04600
Cu1172     Cu  0.56769354  0.62911417  0.09253654     1.04300
C1173       C  0.54139924  0.65145807  0.22522465     0.95800
C1174       C  0.62309902  0.58387020  0.05598407     0.94900
C1175       C  0.62809442  0.66964548  0.13797013     0.87000
C1176       C  0.53640386  0.56568272  0.14323888     0.93300
N1177       N  0.49629124  0.96620007  0.82938590    -0.01000
C1178       C  0.48671146  0.94887042  0.88679095     0.01600
C1179       C  0.50533269  0.96105130  0.94264848    -0.21300
C1180       C  0.52568770  0.98809718  0.91907162    -0.21500
C1181       C  0.51740033  0.99271661  0.85009027     0.01500
H1182       H  0.50366997  0.95196066  0.99483785     0.15300
H1183       H  0.54074504  0.00551719  0.95161343     0.15300
N1184       N  0.50132103  0.94917016  0.76650861    -0.01000
C1185       C  0.51785673  0.91913771  0.75755365     0.01600
C1186       C  0.51335418  0.90821258  0.69102525    -0.21300
C1187       C  0.49330377  0.93160186  0.65853911    -0.21500
C1188       C  0.48718259  0.95754556  0.70505641     0.01500
H1189       H  0.52514324  0.88650463  0.66726158     0.15300
H1190       H  0.48752240  0.93120185  0.60430474     0.15300
N1191       N  0.50154007  0.51912803  0.70182326    -0.01000
C1192       C  0.51111974  0.53645775  0.64441807     0.01600
C1193       C  0.49249842  0.52427681  0.58856083    -0.21300
C1194       C  0.47214360  0.49723115  0.61213751    -0.21500
C1195       C  0.48043082  0.49261159  0.68111881     0.01500
H1196       H  0.49416114  0.53336845  0.53636855     0.15300
H1197       H  0.45708671  0.97981159  0.57959715     0.15300
N1198       N  0.49651031  0.53615795  0.76470050    -0.01000
C1199       C  0.47997464  0.56619009  0.77365493     0.01600
C1200       C  0.48447697  0.57711570  0.84018375    -0.21300
C1201       C  0.50452756  0.55372600  0.87266974    -0.21500
C1202       C  0.51064866  0.52778247  0.82615307     0.01500
H1203       H  0.47268957  0.59881996  0.86394287     0.15300
H1204       H  0.51030907  0.05412659  0.92690591     0.15300
N1205       N  0.49629222  0.71619954  0.70182181    -0.01000
C1206       C  0.48671276  0.69886887  0.64441603     0.01600
C1207       C  0.50533629  0.71104678  0.58855824    -0.21300
C1208       C  0.52569333  0.73809107  0.61213382    -0.21500
C1209       C  0.51740515  0.74271293  0.68111704     0.01500
H1210       H  0.50367394  0.70195292  0.53635920     0.15300
H1211       H  0.54075386  0.75550829  0.57959351     0.15300
N1212       N  0.50131654  0.69917137  0.76469974    -0.01000
C1213       C  0.51784927  0.66913823  0.77365459     0.01600
C1214       C  0.51333936  0.65821331  0.84018055    -0.21300
C1215       C  0.49328725  0.68160369  0.87266495    -0.21500
C1216       C  0.48717250  0.70754785  0.82615035     0.01500
H1217       H  0.52512550  0.63650456  0.86394372     0.15300
H1218       H  0.48750008  0.68120434  0.92690394     0.15300
N1219       N  0.49651485  0.78615690  0.76650906    -0.01000
C1220       C  0.47998211  0.81618986  0.75755434     0.01600
C1221       C  0.48449182  0.82711494  0.69102781    -0.21300
C1222       C  0.50454381  0.80372448  0.65854400    -0.21500
C1223       C  0.51065860  0.77778040  0.70505726     0.01500
H1224       H  0.47270628  0.84882188  0.66726819     0.15300
H1225       H  0.51033142  0.80412402  0.60429540     0.15300
N1226       N  0.50153915  0.76912869  0.82938667    -0.01000
C1227       C  0.51111847  0.78645925  0.88679274     0.01600
C1228       C  0.49249482  0.77428126  0.94265018    -0.21300
C1229       C  0.47213777  0.74723707  0.91907456    -0.21500
C1230       C  0.48042609  0.74261525  0.85009157     0.01500
H1231       H  0.49415708  0.78337519  0.99485014     0.15300
H1232       H  0.45707693  0.72981981  0.95161489     0.15300
N1233       N  0.66295873  0.96619944  0.95182222    -0.01000
C1234       C  0.65337934  0.94886865  0.89441530     0.01600
C1235       C  0.67200292  0.96104687  0.83855919    -0.21300
C1236       C  0.69235993  0.98809059  0.86213357    -0.21500
C1237       C  0.68407181  0.99271270  0.43111717     0.01500
H1238       H  0.67034043  0.95195049  0.78634828     0.15300
H1239       H  0.70742038  0.00550798  0.32959384     0.15300
N1240       N  0.33464955  0.94917122  0.01469982    -0.01000
C1241       C  0.35118212  0.91913802  0.02365501     0.01600
C1242       C  0.34667229  0.90821307  0.09018132    -0.21300
C1243       C  0.32662053  0.93160361  0.62266483    -0.21500
C1244       C  0.32050578  0.95754778  0.57615179     0.01500
H1245       H  0.35845823  0.88650462  0.11394295     0.15300
H1246       H  0.32083272  0.93120400  0.67691430     0.15300
N1247       N  0.66318155  0.53615674  0.51650932    -0.01000
C1248       C  0.64664909  0.56619007  0.50755444     0.01600
C1249       C  0.65115899  0.57711496  0.44102838    -0.21300
C1250       C  0.67121110  0.55372439  0.40854404    -0.21500
C1251       C  0.67732550  0.52778016  0.45505857     0.01500
H1252       H  0.63937325  0.59882348  0.41726554     0.15300
H1253       H  0.67699761  0.05412390  0.35430847     0.15300
N1254       N  0.33487253  0.51912868  0.57938710    -0.01000
C1255       C  0.34445206  0.53645931  0.63679297     0.01600
C1256       C  0.32582847  0.52428147  0.69265080    -0.21300
C1257       C  0.30547117  0.49723716  0.66907537    -0.21500
C1258       C  0.31375947  0.49261538  0.60009202     0.01500
H1259       H  0.32749078  0.53337522  0.74484932     0.15300
H1260       H  0.29040984  0.97981884  0.70161720     0.15300
N1261       N  0.66317684  0.78615806  0.01470056    -0.01000
C1262       C  0.64664092  0.81619011  0.02365509     0.01600
C1263       C  0.65114335  0.82711549  0.09018368    -0.21300
C1264       C  0.67119393  0.80372619  0.12266959    -0.21500
C1265       C  0.67731542  0.77778266  0.57615268     0.01500
H1266       H  0.63935492  0.84882189  0.11394552     0.15300
H1267       H  0.67697529  0.80412655  0.67690424     0.15300
N1268       N  0.33487325  0.76912803  0.95182315    -0.01000
C1269       C  0.34445286  0.78645772  0.89441792     0.01600
C1270       C  0.32583169  0.77427678  0.83856063    -0.21300
C1271       C  0.30547680  0.74723092  0.86213746    -0.21500
C1272       C  0.31376434  0.74261169  0.43111917     0.01500
H1273       H  0.32749420  0.78336807  0.78636840     0.15300
H1274       H  0.29042047  0.72981248  0.32959987     0.15300
N1275       N  0.66295805  0.71620004  0.57938577    -0.01000
C1276       C  0.65337843  0.69887036  0.63679108     0.01600
C1277       C  0.67199961  0.71105137  0.69264826    -0.21300
C1278       C  0.69235444  0.73809712  0.66907164    -0.21500
C1279       C  0.68406708  0.74271654  0.60009006     0.01500
H1280       H  0.67033651  0.70195988  0.74484119     0.15300
H1281       H  0.70741258  0.75551753  0.70161376     0.15300
N1282       N  0.33465450  0.69917010  0.51650854    -0.01000
C1283       C  0.35119029  0.66913795  0.50755389     0.01600
C1284       C  0.34668794  0.65821266  0.44102516    -0.21300
C1285       C  0.32663735  0.68160201  0.40853934    -0.21500
C1286       C  0.32051593  0.70754547  0.45505603     0.01500
H1287       H  0.35847608  0.63650648  0.41726427     0.15300
H1288       H  0.32085555  0.68120175  0.35430166     0.15300
O1289       O  0.43689879  0.91769914  0.84309216    -0.70400
O1290       O  0.36717269  0.83859234  0.84722670    -0.71400
O1291       O  0.37134779  0.90420947  0.91042818    -0.60000
O1292       O  0.43290449  0.85295502  0.78143691    -0.68500
O1293       O  0.45981642  0.83111850  0.87078095    -0.68000
O1294       O  0.39825958  0.88237287  0.99977217    -0.59300
O1295       O  0.39426552  0.81762887  0.93811664    -0.71800
O1296       O  0.46399141  0.89673561  0.93398234    -0.70600
Cu1297     Cu  0.40102653  0.87911412  0.84253666     1.04600
Cu1298     Cu  0.43013771  0.85621389  0.93867231     1.04300
C1299       C  0.46142736  0.91964544  0.88797015     0.95800
C1300       C  0.36973690  0.81568250  0.89323874     0.94900
C1301       C  0.37473211  0.90145788  0.97522490     0.87000
C1302       C  0.45643204  0.83387012  0.80598416     0.93300
O1303       O  0.59956640  0.85295702  0.99977066    -0.70400
O1304       O  0.53801565  0.90421122  0.87078208    -0.71400
O1305       O  0.53383701  0.83859515  0.93398197    -0.60000
O1306       O  0.60356448  0.91770021  0.93811729    -0.68500
O1307       O  0.63066054  0.89673281  0.84722716    -0.66000
O1308       O  0.56093324  0.81762777  0.84309171    -0.59300
O1309       O  0.56493117  0.88237089  0.78143826    -0.71800
O1310       O  0.62648197  0.83111675  0.91042682    -0.70600
Cu1311     Cu  0.56769139  0.87911607  0.93867245     1.04600
Cu1312     Cu  0.59680621  0.85621190  0.84253663     1.04300
C1313       C  0.62309435  0.83387019  0.97522386     0.95800
C1314       C  0.54140321  0.90145779  0.80598512     0.94900
C1315       C  0.53640285  0.81568357  0.88797002     0.87000
C1316       C  0.62809471  0.91964455  0.89323901     0.93300
O1317       O  0.46399413  0.64673291  0.59722702    -0.70400
O1318       O  0.39426685  0.56762777  0.59309184    -0.71400
O1319       O  0.39826466  0.63237088  0.53143821    -0.60000
O1320       O  0.45981550  0.58111690  0.66042696    -0.68500
O1321       O  0.43290017  0.60295732  0.74977082    -0.68000
O1322       O  0.37134939  0.65421128  0.62078203    -0.59300
O1323       O  0.36717075  0.58859530  0.68398206    -0.71800
O1324       O  0.43689799  0.66770031  0.68811721    -0.70600
Cu1325     Cu  0.43013980  0.60621197  0.59253664     1.04600
Cu1326     Cu  0.40102501  0.62911621  0.68867240     1.04300
C1327       C  0.46142832  0.66964456  0.64323881     0.95800
C1328       C  0.36973649  0.56568364  0.63797020     0.94900
C1329       C  0.37473694  0.65145794  0.55598506     0.87000
C1330       C  0.45642798  0.58387036  0.72522403     0.93300
O1331       O  0.56492671  0.63237317  0.74977213    -0.70400
O1332       O  0.62648336  0.58111861  0.62078100    -0.71400
O1333       O  0.63065858  0.64673576  0.68398226    -0.60000
O1334       O  0.56093237  0.56762905  0.68811689    -0.68500
O1335       O  0.53383977  0.58859253  0.59722673    -0.68000
O1336       O  0.60356575  0.66769925  0.59309224    -0.59300
O1337       O  0.59957160  0.60295525  0.53143685    -0.71800
O1338       O  0.53801487  0.65420961  0.66042799    -0.70600
Cu1339     Cu  0.59680470  0.60621404  0.68867239     1.04600
Cu1340     Cu  0.56769358  0.62911424  0.59253663     1.04300
C1341       C  0.54139926  0.65145813  0.72522479     0.95800
C1342       C  0.62309897  0.58387016  0.55598418     0.94900
C1343       C  0.62809433  0.66964563  0.63797026     0.87000
C1344       C  0.53640379  0.56568272  0.64323897     0.93300
N1345       N  0.82962436  0.46620004  0.32938629    -0.01000
C1346       C  0.82004461  0.44887022  0.38679190     0.01600
C1347       C  0.83866570  0.46105121  0.44264844    -0.21300
C1348       C  0.85902068  0.48809694  0.41907263    -0.21500
C1349       C  0.85073334  0.49271636  0.35009041     0.01500
H1350       H  0.83700285  0.45195893  0.49484728     0.15300
H1351       H  0.87407740  0.50551601  0.45161171     0.15300
N1352       N  0.83465413  0.44917009  0.26650877    -0.01000
C1353       C  0.85118982  0.41913773  0.25755376     0.01600
C1354       C  0.84668726  0.40821261  0.19102533    -0.21300
C1355       C  0.82663685  0.43160187  0.15853916    -0.21500
C1356       C  0.82051566  0.45754552  0.20505661     0.01500
H1357       H  0.85847631  0.38650468  0.16726168     0.15300
H1358       H  0.82085550  0.43120190  0.10430533     0.15300
N1359       N  0.83487370  0.01912814  0.20182359    -0.01000
C1360       C  0.84445340  0.03645787  0.14441812     0.01600
C1361       C  0.82583228  0.02427715  0.08856104    -0.21300
C1362       C  0.80547712  0.99723118  0.11213748    -0.21500
C1363       C  0.81376455  0.99261191  0.18111947     0.01500
H1364       H  0.82749474  0.03336843  0.03636873     0.15300
H1365       H  0.79041971  0.47981151  0.07959749     0.15300
N1366       N  0.82984380  0.03615802  0.26470059    -0.01000
C1367       C  0.81330814  0.06619024  0.27365529     0.01600
C1368       C  0.81781058  0.07711569  0.34018396    -0.21300
C1369       C  0.83786103  0.05372607  0.37266974    -0.21500
C1370       C  0.84398230  0.02778252  0.32615309     0.01500
H1371       H  0.80602266  0.09882124  0.36394482     0.15300
H1372       H  0.84364208  0.55412637  0.42690620     0.15300
N1373       N  0.82962561  0.21619953  0.20182192    -0.01000
C1374       C  0.82004634  0.19886893  0.14441601     0.01600
C1375       C  0.83866986  0.21104689  0.08855820    -0.21300
C1376       C  0.85902690  0.23809124  0.11213397    -0.21500
C1377       C  0.85073851  0.24271298  0.18111722     0.01500
H1378       H  0.83700757  0.20195326  0.03635929     0.15300
H1379       H  0.87408688  0.25550815  0.07959464     0.15300
N1380       N  0.83465005  0.19917141  0.26469975    -0.01000
C1381       C  0.85118285  0.16913819  0.27365467     0.01600
C1382       C  0.84667296  0.15821335  0.34018067    -0.21300
C1383       C  0.82662078  0.18160376  0.37266516    -0.21500
C1384       C  0.82050599  0.20754783  0.32615043     0.01500
H1385       H  0.85845929  0.13650468  0.36394394     0.15300
H1386       H  0.82083377  0.18120452  0.42690326     0.15300
N1387       N  0.82984805  0.28615701  0.26650903    -0.01000
C1388       C  0.81331519  0.31618991  0.25755407     0.01600
C1389       C  0.81782500  0.32711483  0.19102774    -0.21300
C1390       C  0.83787699  0.30372459  0.15854396    -0.21500
C1391       C  0.84399195  0.27778043  0.20505752     0.01500
H1392       H  0.80603851  0.34882333  0.16726577     0.15300
H1393       H  0.84366489  0.30412408  0.10429678     0.15300
N1394       N  0.83487224  0.26912871  0.32938708    -0.01000
C1395       C  0.84445159  0.28645946  0.38679368     0.01600
C1396       C  0.82582804  0.27428122  0.44265003    -0.21300
C1397       C  0.80547107  0.24723718  0.41907551    -0.21500
C1398       C  0.81375950  0.24261535  0.35009180     0.01500
H1399       H  0.82749062  0.28337705  0.49485998     0.15300
H1400       H  0.79041066  0.22982010  0.45161388     0.15300
N1401       N  0.99629173  0.46619950  0.45182206    -0.01000
C1402       C  0.98671231  0.44886875  0.39441633     0.01600
C1403       C  0.00533587  0.46104668  0.33855852    -0.21300
C1404       C  0.02569319  0.48809093  0.36213407    -0.21500
C1405       C  0.01740471  0.49271240  0.93111768     0.01500
H1406       H  0.00367376  0.45195292  0.28635976     0.15300
H1407       H  0.04075166  0.50550531  0.82959929     0.15300
N1408       N  0.66798270  0.44917125  0.51470000    -0.01000
C1409       C  0.68451517  0.41913841  0.52365434     0.01600
C1410       C  0.68000539  0.40821297  0.59018118    -0.21300
C1411       C  0.65995376  0.43160341  0.12266488    -0.21500
C1412       C  0.65383897  0.45754772  0.07615151     0.01500
H1413       H  0.69178949  0.38650800  0.61393867     0.15300
H1414       H  0.65416579  0.43120407  0.17691313     0.15300
N1415       N  0.99651519  0.03615679  0.01650920    -0.01000
C1416       C  0.97998269  0.06619014  0.00755422     0.01600
C1417       C  0.98449260  0.07711479  0.94102805    -0.21300
C1418       C  0.00454433  0.05372455  0.90854425    -0.21500
C1419       C  0.01065905  0.02778028  0.95505767     0.01500
H1420       H  0.97270565  0.09882471  0.91726475     0.15300
H1421       H  0.01033104  0.55412393  0.85430660     0.15300
N1422       N  0.66820605  0.01912860  0.07938716    -0.01000
C1423       C  0.67778557  0.03645925  0.13679307     0.01600
C1424       C  0.65916195  0.02428128  0.19265092    -0.21300
C1425       C  0.63880485  0.99723718  0.16907541    -0.21500
C1426       C  0.64709299  0.99261522  0.10009237     0.01500
H1427       H  0.66082459  0.03337543  0.24485016     0.15300
H1428       H  0.62374294  0.47981867  0.20161761     0.15300
N1429       N  0.99650999  0.28615788  0.51470013    -0.01000
C1430       C  0.97997408  0.31619001  0.52365519     0.01600
C1431       C  0.98447643  0.32711536  0.59018386    -0.21300
C1432       C  0.00452712  0.30372599  0.62266991    -0.21500
C1433       C  0.01064869  0.27778261  0.07615258     0.01500
H1434       H  0.97268791  0.34882108  0.61394559     0.15300
H1435       H  0.01030874  0.30412624  0.17690571     0.15300
N1436       N  0.66820651  0.26912800  0.45182298    -0.01000
C1437       C  0.67778601  0.28645792  0.39441691     0.01600
C1438       C  0.65916497  0.27427677  0.33856131    -0.21300
C1439       C  0.63881011  0.24723097  0.36213682    -0.21500
C1440       C  0.64709742  0.24261138  0.93111874     0.01500
H1441       H  0.66082761  0.28336994  0.28635817     0.15300
H1442       H  0.62375176  0.22980990  0.82959428     0.15300
N1443       N  0.99629144  0.21620008  0.07938571    -0.01000
C1444       C  0.98671189  0.19887028  0.13679100     0.01600
C1445       C  0.00533294  0.21105126  0.19264757    -0.21300
C1446       C  0.02568792  0.23809716  0.16907147    -0.21500
C1447       C  0.01740029  0.24271642  0.10008942     0.01500
H1448       H  0.00367017  0.20195922  0.24484417     0.15300
H1449       H  0.04074419  0.25551575  0.20160905     0.15300
N1450       N  0.66798799  0.19916995  0.01650795    -0.01000
C1451       C  0.68452387  0.16913802  0.00755354     0.01600
C1452       C  0.68002147  0.15821273  0.94102430    -0.21300
C1453       C  0.65997106  0.18160188  0.90853937    -0.21500
C1454       C  0.65384932  0.20754536  0.95505547     0.01500
H1455       H  0.69181041  0.13650586  0.91726291     0.15300
H1456       H  0.65418834  0.18120168  0.85429427     0.15300
O1457       O  0.77023202  0.41769908  0.34309223    -0.70400
O1458       O  0.70050594  0.33859242  0.34722666    -0.71400
O1459       O  0.70468106  0.40420950  0.41042804    -0.60000
O1460       O  0.76623766  0.35295504  0.28143692    -0.68500
O1461       O  0.79314956  0.33111845  0.37078092    -0.68000
O1462       O  0.73159267  0.38237286  0.49977221    -0.59300
O1463       O  0.72759859  0.31762884  0.43811669    -0.71800
O1464       O  0.79732458  0.39673558  0.43398262    -0.70600
Cu1465     Cu  0.73435970  0.37911409  0.34253669     1.04600
Cu1466     Cu  0.76347083  0.35621385  0.43867242     1.04300
C1467       C  0.79476057  0.41964538  0.38797027     0.95800
C1468       C  0.70307010  0.31568252  0.39323884     0.94900
C1469       C  0.70806534  0.40145790  0.47522491     0.87000
C1470       C  0.78976518  0.33387012  0.30598413     0.93300
O1471       O  0.93289955  0.35295697  0.49977064    -0.70400
O1472       O  0.87134872  0.40421119  0.37078217    -0.71400
O1473       O  0.86717017  0.33859522  0.43398217    -0.60000
O1474       O  0.93689749  0.41770020  0.43811734    -0.68500
O1475       O  0.96399367  0.39673284  0.34722705    -0.66000
O1476       O  0.89426639  0.31762778  0.34309193    -0.59300
O1477       O  0.89826424  0.38237086  0.28143836    -0.71800
O1478       O  0.95981505  0.33111675  0.41042684    -0.70600
Cu1479     Cu  0.90102449  0.37911607  0.43867247     1.04600
Cu1480     Cu  0.93013934  0.35621190  0.34253662     1.04300
C1481       C  0.95642751  0.33387012  0.47522379     0.95800
C1482       C  0.87473630  0.40145776  0.30598520     0.94900
C1483       C  0.86973599  0.31568359  0.38797018     0.87000
C1484       C  0.96142789  0.41964444  0.39323894     0.93300
O1485       O  0.79732778  0.14673299  0.09722703    -0.70400
O1486       O  0.72760042  0.06762787  0.09309191    -0.71400
O1487       O  0.73159836  0.13237102  0.03143827    -0.60000
O1488       O  0.79314910  0.08111701  0.16042705    -0.68500
O1489       O  0.76623371  0.10295722  0.24977095    -0.68000
O1490       O  0.70468289  0.15421129  0.12078202    -0.59300
O1491       O  0.70050422  0.08859527  0.18398210    -0.71800
O1492       O  0.77023161  0.16770030  0.18811704    -0.70600
Cu1493     Cu  0.76347339  0.10621205  0.09253674     1.04600
Cu1494     Cu  0.73435861  0.12911622  0.18867244     1.04300
C1495       C  0.79476193  0.16964462  0.14323866     0.95800
C1496       C  0.70307008  0.06568355  0.13797029     0.94900
C1497       C  0.70807049  0.15145787  0.05598485     0.87000
C1498       C  0.78976168  0.08387048  0.22522406     0.93300
O1499       O  0.89826028  0.13237309  0.24977214    -0.70400
O1500       O  0.95981704  0.08111859  0.12078108    -0.71400
O1501       O  0.96399210  0.14673580  0.18398231    -0.60000
O1502       O  0.89426592  0.06762896  0.18811691    -0.68500
O1503       O  0.86717329  0.08859255  0.09722689    -0.68000
O1504       O  0.93689934  0.16769914  0.09309229    -0.59300
O1505       O  0.93290515  0.10295514  0.03143703    -0.71800
O1506       O  0.87134844  0.15420971  0.16042804    -0.70600
Cu1507     Cu  0.93013825  0.10621403  0.18867242     1.04600
Cu1508     Cu  0.90102713  0.12911424  0.09253674     1.04300
C1509       C  0.87473286  0.15145816  0.22522481     0.95800
C1510       C  0.95643269  0.08387018  0.05598436     0.94900
C1511       C  0.96142792  0.16964556  0.13797018     0.87000
C1512       C  0.86973739  0.06568266  0.14323897     0.93300
N1513       N  0.82962421  0.46619996  0.82938558    -0.01000
C1514       C  0.82004447  0.44887022  0.88679124     0.01600
C1515       C  0.83866542  0.46105100  0.94264830    -0.21300
C1516       C  0.85902074  0.48809702  0.91907219    -0.21500
C1517       C  0.85073325  0.49271623  0.85009001     0.01500
H1518       H  0.83700267  0.45195971  0.99484147     0.15300
H1519       H  0.87407660  0.50551473  0.95160922     0.15300
N1520       N  0.83465411  0.44917014  0.76650870    -0.01000
C1521       C  0.85118983  0.41913764  0.75755375     0.01600
C1522       C  0.84668729  0.40821270  0.69102566    -0.21300
C1523       C  0.82663703  0.43160177  0.65853941    -0.21500
C1524       C  0.82051555  0.45754542  0.70505623     0.01500
H1525       H  0.85847693  0.38650400  0.66726135     0.15300
H1526       H  0.82085531  0.43120164  0.60430325     0.15300
N1527       N  0.83487370  0.01912814  0.70182347    -0.01000
C1528       C  0.84445332  0.03645790  0.64441797     0.01600
C1529       C  0.82583216  0.02427700  0.58856090    -0.21300
C1530       C  0.80547712  0.99723119  0.61213750    -0.21500
C1531       C  0.81376456  0.99261183  0.68111921     0.01500
H1532       H  0.82749468  0.03336860  0.53636778     0.15300
H1533       H  0.79041851  0.47981013  0.57959442     0.15300
N1534       N  0.82984383  0.03615812  0.76470063    -0.01000
C1535       C  0.81330815  0.06619050  0.77365542     0.01600
C1536       C  0.81781063  0.07711558  0.84018387    -0.21300
C1537       C  0.83786088  0.05372643  0.87266973    -0.21500
C1538       C  0.84398235  0.02778277  0.82615313     0.01500
H1539       H  0.80602125  0.09882374  0.86394730     0.15300
H1540       H  0.84364259  0.55412639  0.92690812     0.15300
N1541       N  0.82962562  0.21619958  0.70182169    -0.01000
C1542       C  0.82004633  0.19886884  0.64441600     0.01600
C1543       C  0.83866982  0.21104686  0.58855829    -0.21300
C1544       C  0.85902680  0.23809114  0.61213395    -0.21500
C1545       C  0.85073849  0.24271288  0.68111723     0.01500
H1546       H  0.83700747  0.20195298  0.53635861     0.15300
H1547       H  0.87408716  0.25550828  0.57959417     0.15300
N1548       N  0.83465005  0.19917131  0.76469981    -0.01000
C1549       C  0.85118278  0.16913831  0.77365447     0.01600
C1550       C  0.84667299  0.15821333  0.84018061    -0.21300
C1551       C  0.82662069  0.18160370  0.87266496    -0.21500
C1552       C  0.82050594  0.20754783  0.82615023     0.01500
H1553       H  0.85845909  0.13650506  0.86394345     0.15300
H1554       H  0.82083362  0.18120440  0.92690324     0.15300
N1555       N  0.82984801  0.28615683  0.76650906    -0.01000
C1556       C  0.81331533  0.31618967  0.75755438     0.01600
C1557       C  0.81782499  0.32711495  0.69102763    -0.21300
C1558       C  0.83787713  0.30372430  0.65854421    -0.21500
C1559       C  0.84399196  0.27778032  0.70505744     0.01500
H1560       H  0.80604041  0.34882106  0.66726917     0.15300
H1561       H  0.84366489  0.30412389  0.60429548     0.15300
N1562       N  0.83487225  0.26912863  0.82938679    -0.01000
C1563       C  0.84445155  0.28645934  0.88679280     0.01600
C1564       C  0.82582793  0.27428124  0.94265016    -0.21300
C1565       C  0.80547092  0.24723692  0.91907465    -0.21500
C1566       C  0.81375931  0.24261519  0.85009150     0.01500
H1567       H  0.82749017  0.28337526  0.99485045     0.15300
H1568       H  0.79041052  0.22981985  0.95161439     0.15300
N1569       N  0.99629176  0.46619935  0.95182201    -0.01000
C1570       C  0.98671222  0.44886863  0.89441588     0.01600
C1571       C  0.00533574  0.46104646  0.83855903    -0.21300
C1572       C  0.02569314  0.48809081  0.86213357    -0.21500
C1573       C  0.01740490  0.49271263  0.43111741     0.01500
H1574       H  0.00367344  0.45195177  0.78635271     0.15300
H1575       H  0.04075336  0.50550724  0.32959498     0.15300
N1576       N  0.66798278  0.44917105  0.01470039    -0.01000
C1577       C  0.68451527  0.41913798  0.02365479     0.01600
C1578       C  0.68000541  0.40821310  0.09018121    -0.21300
C1579       C  0.65995339  0.43160384  0.62266473    -0.21500
C1580       C  0.65383886  0.45754791  0.57615153     0.01500
H1581       H  0.69179209  0.38650372  0.11394379     0.15300
H1582       H  0.65416569  0.43120396  0.67691300     0.15300
N1583       N  0.99651527  0.03615676  0.51650961    -0.01000
C1584       C  0.97998271  0.06618983  0.50755480     0.01600
C1585       C  0.98449260  0.07711504  0.44102860    -0.21300
C1586       C  0.00454471  0.05372421  0.40854406    -0.21500
C1587       C  0.01065916  0.02778012  0.45505871     0.01500
H1588       H  0.97270787  0.09882133  0.41726792     0.15300
H1589       H  0.01033123  0.55412361  0.35430577     0.15300
N1590       N  0.66820610  0.01912858  0.57938771    -0.01000
C1591       C  0.67778549  0.03645943  0.63679400     0.01600
C1592       C  0.65916178  0.02428111  0.69265050    -0.21300
C1593       C  0.63880496  0.99723731  0.66907583    -0.21500
C1594       C  0.64709303  0.99261530  0.60009263     0.01500
H1595       H  0.66082427  0.03337692  0.74485923     0.15300
H1596       H  0.62374414  0.47982047  0.70161490     0.15300
N1597       N  0.99650994  0.28615797  0.01470051    -0.01000
C1598       C  0.97997405  0.31619009  0.02365517     0.01600
C1599       C  0.98447645  0.32711537  0.09018387    -0.21300
C1600       C  0.00452712  0.30372609  0.12266956    -0.21500
C1601       C  0.01064867  0.27778259  0.57615252     0.01500
H1602       H  0.97268779  0.34882194  0.11394621     0.15300
H1603       H  0.01030849  0.30412632  0.67690422     0.15300
N1604       N  0.66820648  0.26912793  0.95182301    -0.01000
C1605       C  0.67778602  0.28645760  0.89441791     0.01600
C1606       C  0.65916482  0.27427659  0.83856035    -0.21300
C1607       C  0.63881008  0.24723090  0.86213735    -0.21500
C1608       C  0.64709770  0.24261164  0.43111913     0.01500
H1609       H  0.66082772  0.28336777  0.78636882     0.15300
H1610       H  0.62375401  0.22981230  0.32960016     0.15300
N1611       N  0.99629146  0.21620014  0.57938553    -0.01000
C1612       C  0.98671200  0.19887037  0.63679125     0.01600
C1613       C  0.00533318  0.21105139  0.69264787    -0.21300
C1614       C  0.02568805  0.23809731  0.66907125    -0.21500
C1615       C  0.01740052  0.24271653  0.60008945     0.01500
H1616       H  0.00367034  0.20195981  0.74484305     0.15300
H1617       H  0.04074513  0.25551649  0.70161004     0.15300
N1618       N  0.66798796  0.19917009  0.51650851    -0.01000
C1619       C  0.68452396  0.16913793  0.50755367     0.01600
C1620       C  0.68002161  0.15821261  0.44102510    -0.21300
C1621       C  0.65997108  0.18160191  0.40853931    -0.21500
C1622       C  0.65384942  0.20754539  0.45505590     0.01500
H1623       H  0.69181063  0.13650582  0.41726333     0.15300
H1624       H  0.65418904  0.18120173  0.35430099     0.15300
O1625       O  0.77023199  0.41769905  0.84309216    -0.70400
O1626       O  0.70050590  0.33859237  0.84722653    -0.71400
O1627       O  0.70468095  0.40420948  0.91042807    -0.60000
O1628       O  0.76623770  0.35295492  0.78143680    -0.68500
O1629       O  0.79314968  0.33111858  0.87078092    -0.68000
O1630       O  0.73159282  0.38237293  0.99977215    -0.59300
O1631       O  0.72759865  0.31762888  0.93811655    -0.71800
O1632       O  0.79732465  0.39673566  0.93398257    -0.70600
Cu1633     Cu  0.73435969  0.37911409  0.84253656     1.04600
Cu1634     Cu  0.76347086  0.35621390  0.93867233     1.04300
C1635       C  0.79476050  0.41964544  0.88797012     0.95800
C1636       C  0.70306997  0.31568260  0.89323870     0.94900
C1637       C  0.70806539  0.40145789  0.97522500     0.87000
C1638       C  0.78976515  0.33386996  0.80598409     0.93300
O1639       O  0.93289961  0.35295713  0.99977070    -0.70400
O1640       O  0.87134890  0.40421126  0.87078219    -0.71400
O1641       O  0.86717023  0.33859528  0.93398204    -0.60000
O1642       O  0.93689759  0.41770022  0.93811736    -0.68500
O1643       O  0.96399363  0.39673276  0.84722714    -0.66000
O1644       O  0.89426636  0.31762778  0.84309177    -0.59300
O1645       O  0.89826416  0.38237083  0.78143852    -0.71800
O1646       O  0.95981492  0.33111676  0.91042682    -0.70600
Cu1647     Cu  0.90102456  0.37911611  0.93867247     1.04600
Cu1648     Cu  0.93013929  0.35621188  0.84253664     1.04300
C1649       C  0.95642743  0.33387022  0.97522391     0.95800
C1650       C  0.87473636  0.40145791  0.80598543     0.94900
C1651       C  0.86973597  0.31568364  0.88797010     0.87000
C1652       C  0.96142782  0.41964445  0.89323881     0.93300
O1653       O  0.79732778  0.14673299  0.59722699    -0.70400
O1654       O  0.72760029  0.06762797  0.59309201    -0.71400
O1655       O  0.73159837  0.13237094  0.53143829    -0.60000
O1656       O  0.79314899  0.08111694  0.66042701    -0.68500
O1657       O  0.76623374  0.10295741  0.74977082    -0.68000
O1658       O  0.70468293  0.15421136  0.62078203    -0.59300
O1659       O  0.70050429  0.08859538  0.68398214    -0.71800
O1660       O  0.77023158  0.16770045  0.68811710    -0.70600
Cu1661     Cu  0.76347338  0.10621203  0.59253669     1.04600
Cu1662     Cu  0.73435859  0.12911625  0.68867238     1.04300
C1663       C  0.79476193  0.16964467  0.64323868     0.95800
C1664       C  0.70307004  0.06568365  0.63797044     0.94900
C1665       C  0.70807053  0.15145793  0.55598505     0.87000
C1666       C  0.78976158  0.08387046  0.72522398     0.93300
O1667       O  0.89826019  0.13237320  0.74977208    -0.70400
O1668       O  0.95981694  0.08111854  0.62078117    -0.71400
O1669       O  0.96399211  0.14673572  0.68398226    -0.60000
O1670       O  0.89426596  0.06762907  0.68811685    -0.68500
O1671       O  0.86717329  0.08859243  0.59722676    -0.68000
O1672       O  0.93689934  0.16769927  0.59309217    -0.59300
O1673       O  0.93290518  0.10295516  0.53143700    -0.71800
O1674       O  0.87134833  0.15420967  0.66042793    -0.70600
Cu1675     Cu  0.93013825  0.10621404  0.68867248     1.04600
Cu1676     Cu  0.90102713  0.12911420  0.59253669     1.04300
C1677       C  0.87473284  0.15145823  0.72522476     0.95800
C1678       C  0.95643258  0.08387012  0.55598436     0.94900
C1679       C  0.96142787  0.16964563  0.63797006     0.87000
C1680       C  0.86973742  0.06568263  0.64323893     0.93300
N1681       N  0.82962447  0.96619998  0.32938621    -0.01000
C1682       C  0.82004483  0.94887018  0.38679194     0.01600
C1683       C  0.83866597  0.96105125  0.44264807    -0.21300
C1684       C  0.85902097  0.98809690  0.41907240    -0.21500
C1685       C  0.85073348  0.99271626  0.35009022     0.01500
H1686       H  0.83700325  0.95195860  0.49484891     0.15300
H1687       H  0.87407764  0.00551588  0.45161037     0.15300
N1688       N  0.83465425  0.94917011  0.26650883    -0.01000
C1689       C  0.85119003  0.91913792  0.25755401     0.01600
C1690       C  0.84668746  0.90821256  0.19102543    -0.21300
C1691       C  0.82663692  0.93160209  0.15853917    -0.21500
C1692       C  0.82051587  0.95754566  0.20505657     0.01500
H1693       H  0.85847573  0.88650672  0.16726371     0.15300
H1694       H  0.82085595  0.93120196  0.10430588     0.15300
N1695       N  0.83487339  0.51912813  0.20182345    -0.01000
C1696       C  0.84445310  0.53645776  0.14441807     0.01600
C1697       C  0.82583187  0.52427694  0.08856084    -0.21300
C1698       C  0.80547680  0.49723109  0.11213768    -0.21500
C1699       C  0.81376428  0.49261167  0.18111927     0.01500
H1700       H  0.82749462  0.53336818  0.03636878     0.15300
H1701       H  0.79042091  0.97981302  0.07959933     0.15300
N1702       N  0.82984359  0.53615804  0.26470059    -0.01000
C1703       C  0.81330793  0.56619030  0.27365522     0.01600
C1704       C  0.81781035  0.57711572  0.34018398    -0.21300
C1705       C  0.83786083  0.55372614  0.37266987    -0.21500
C1706       C  0.84398198  0.52778260  0.32615316     0.01500
H1707       H  0.80602242  0.59882106  0.36394478     0.15300
H1708       H  0.84364238  0.05412628  0.42690633     0.15300
N1709       N  0.82962550  0.71619948  0.20182166    -0.01000
C1710       C  0.82004613  0.69886879  0.14441522     0.01600
C1711       C  0.83866966  0.71104694  0.08855867    -0.21300
C1712       C  0.85902660  0.73809095  0.11213342    -0.21500
C1713       C  0.85073842  0.74271285  0.18111693     0.01500
H1714       H  0.83700708  0.70195173  0.03635093     0.15300
H1715       H  0.87408731  0.75550821  0.07959426     0.15300
N1716       N  0.83464975  0.69917136  0.26469952    -0.01000
C1717       C  0.85118257  0.66913820  0.27365457     0.01600
C1718       C  0.84667268  0.65821330  0.34018049    -0.21300
C1719       C  0.82662053  0.68160368  0.37266511    -0.21500
C1720       C  0.82050588  0.70754788  0.32615049     0.01500
H1721       H  0.85845877  0.63650482  0.36394358     0.15300
H1722       H  0.82083349  0.68120412  0.42690275     0.15300
N1723       N  0.82984809  0.78615688  0.26650903    -0.01000
C1724       C  0.81331545  0.81619000  0.25755404     0.01600
C1725       C  0.81782518  0.82711479  0.19102759    -0.21300
C1726       C  0.83787710  0.80372446  0.15854378    -0.21500
C1727       C  0.84399200  0.77778036  0.20505736     0.01500
H1728       H  0.80603887  0.84882336  0.16726562     0.15300
H1729       H  0.84366472  0.80412368  0.10429660     0.15300
N1730       N  0.83487233  0.76912870  0.32938693    -0.01000
C1731       C  0.84445176  0.78645938  0.38679354     0.01600
C1732       C  0.82582820  0.77428127  0.44265013    -0.21300
C1733       C  0.80547130  0.74723728  0.41907548    -0.21500
C1734       C  0.81375943  0.74261534  0.35009192     0.01500
H1735       H  0.82749081  0.78337702  0.49485904     0.15300
H1736       H  0.79041029  0.72981972  0.45161510     0.15300
N1737       N  0.99629206  0.96619943  0.45182223    -0.01000
C1738       C  0.98671260  0.94886879  0.39441621     0.01600
C1739       C  0.00533622  0.96104682  0.33855867    -0.21300
C1740       C  0.02569337  0.98809082  0.36213429    -0.21500
C1741       C  0.01740507  0.99271259  0.93111711     0.01500
H1742       H  0.00367404  0.95195260  0.28635919     0.15300
H1743       H  0.04075355  0.00550755  0.82959503     0.15300
N1744       N  0.66798294  0.94917132  0.51469993    -0.01000
C1745       C  0.68451547  0.91913818  0.52365478     0.01600
C1746       C  0.68000560  0.90821306  0.59018113    -0.21300
C1747       C  0.65995400  0.93160343  0.12266506    -0.21500
C1748       C  0.65383919  0.95754772  0.07615180     0.01500
H1749       H  0.69179098  0.88650552  0.61394119     0.15300
H1750       H  0.65416602  0.93120414  0.17691323     0.15300
N1751       N  0.99651500  0.53615683  0.01650916    -0.01000
C1752       C  0.97998249  0.56618986  0.00755494     0.01600
C1753       C  0.98449217  0.57711503  0.94102854    -0.21300
C1754       C  0.00454436  0.55372433  0.90854391    -0.21500
C1755       C  0.01065878  0.52778008  0.95505869     0.01500
H1756       H  0.97270671  0.59882160  0.91726746     0.15300
H1757       H  0.01033241  0.05412380  0.85429658     0.15300
N1758       N  0.66820587  0.51912854  0.07938773    -0.01000
C1759       C  0.67778535  0.53645927  0.13679292     0.01600
C1760       C  0.65916165  0.52428126  0.19265093    -0.21300
C1761       C  0.63880462  0.49723720  0.16907512    -0.21500
C1762       C  0.64709279  0.49261521  0.10009228     0.01500
H1763       H  0.66082413  0.53337529  0.24484968     0.15300
H1764       H  0.62374327  0.97981894  0.20161743     0.15300
N1765       N  0.99651017  0.78615802  0.51470033    -0.01000
C1766       C  0.97997418  0.81619024  0.52365547     0.01600
C1767       C  0.98447667  0.82711536  0.59018394    -0.21300
C1768       C  0.00452718  0.80372625  0.62266994    -0.21500
C1769       C  0.01064875  0.77778263  0.07615281     0.01500
H1770       H  0.97268719  0.84882310  0.61394745     0.15300
H1771       H  0.01030945  0.80412662  0.17690730     0.15300
N1772       N  0.66820646  0.76912808  0.45182304    -0.01000
C1773       C  0.67778613  0.78645778  0.39441716     0.01600
C1774       C  0.65916499  0.77427667  0.33856097    -0.21300
C1775       C  0.63881017  0.74723096  0.36213698    -0.21500
C1776       C  0.64709784  0.74261164  0.93111929     0.01500
H1777       H  0.66082781  0.78336911  0.28636097     0.15300
H1778       H  0.62375421  0.72981277  0.82959987     0.15300
N1779       N  0.99629133  0.71620016  0.07938589    -0.01000
C1780       C  0.98671168  0.69887041  0.13679077     0.01600
C1781       C  0.00533293  0.71105136  0.19264799    -0.21300
C1782       C  0.02568795  0.73809729  0.16907133    -0.21500
C1783       C  0.01740034  0.74271642  0.10008937     0.01500
H1784       H  0.00367050  0.70196015  0.24484080     0.15300
H1785       H  0.04074468  0.75551588  0.20160960     0.15300
N1786       N  0.66798785  0.69916994  0.01650801    -0.01000
C1787       C  0.68452371  0.66913794  0.00755388     0.01600
C1788       C  0.68002130  0.65821261  0.94102514    -0.21300
C1789       C  0.65997084  0.68160190  0.90853922    -0.21500
C1790       C  0.65384939  0.70754545  0.95505621     0.01500
H1791       H  0.69180986  0.63650566  0.91726288     0.15300
H1792       H  0.65418941  0.68120180  0.85430302     0.15300
O1793       O  0.77023215  0.91769917  0.34309235    -0.70400
O1794       O  0.70050596  0.83859235  0.34722663    -0.71400
O1795       O  0.70468117  0.90420947  0.41042816    -0.60000
O1796       O  0.76623784  0.85295511  0.28143698    -0.68500
O1797       O  0.79314966  0.83111850  0.37078092    -0.68000
O1798       O  0.73159300  0.88237294  0.49977219    -0.59300
O1799       O  0.72759875  0.81762893  0.43811674    -0.71800
O1800       O  0.79732486  0.89673562  0.43398231    -0.70600
Cu1801     Cu  0.73435987  0.87911413  0.34253677     1.04600
Cu1802     Cu  0.76347104  0.85621389  0.43867236     1.04300
C1803       C  0.79476071  0.91964549  0.38797019     0.95800
C1804       C  0.70307018  0.81568254  0.39323887     0.94900
C1805       C  0.70806551  0.90145792  0.47522491     0.87000
C1806       C  0.78976532  0.83387012  0.30598417     0.93300
O1807       O  0.93289977  0.85295706  0.49977066    -0.70400
O1808       O  0.87134898  0.90421124  0.37078221    -0.71400
O1809       O  0.86717039  0.83859520  0.43398196    -0.60000
O1810       O  0.93689772  0.91770027  0.43811741    -0.68500
O1811       O  0.96399392  0.89673290  0.34722717    -0.66000
O1812       O  0.89426655  0.81762790  0.34309189    -0.59300
O1813       O  0.89826448  0.88237095  0.28143832    -0.71800
O1814       O  0.95981532  0.83111674  0.41042689    -0.70600
Cu1815     Cu  0.90102475  0.87911611  0.43867238     1.04600
Cu1816     Cu  0.93013956  0.85621195  0.34253658     1.04300
C1817       C  0.95642769  0.83387014  0.47522385     0.95800
C1818       C  0.87473653  0.90145780  0.30598521     0.94900
C1819       C  0.86973623  0.81568357  0.38797020     0.87000
C1820       C  0.96142805  0.91964457  0.39323904     0.93300
O1821       O  0.79732745  0.64673287  0.09722691    -0.70400
O1822       O  0.72760021  0.56762781  0.09309195    -0.71400
O1823       O  0.73159801  0.63237088  0.03143832    -0.60000
O1824       O  0.79314888  0.58111698  0.16042707    -0.68500
O1825       O  0.76623349  0.60295734  0.24977094    -0.68000
O1826       O  0.70468275  0.65421132  0.12078212    -0.59300
O1827       O  0.70050405  0.58859532  0.18398212    -0.71800
O1828       O  0.77023148  0.66770036  0.18811714    -0.70600
Cu1829     Cu  0.76347315  0.60621201  0.09253671     1.04600
Cu1830     Cu  0.73435839  0.62911623  0.18867250     1.04300
C1831       C  0.79476169  0.66964457  0.14323868     0.95800
C1832       C  0.70306977  0.56568368  0.13797040     0.94900
C1833       C  0.70807031  0.65145789  0.05598499     0.87000
C1834       C  0.78976134  0.58387041  0.22522411     0.93300
O1835       O  0.89826012  0.63237309  0.24977202    -0.70400
O1836       O  0.95981677  0.58111867  0.12078113    -0.71400
O1837       O  0.96399180  0.64673583  0.18398237    -0.60000
O1838       O  0.89426568  0.56762904  0.18811691    -0.68500
O1839       O  0.86717301  0.58859243  0.09722648    -0.68000
O1840       O  0.93689917  0.66769912  0.09309202    -0.59300
O1841       O  0.93290483  0.60295509  0.03143682    -0.71800
O1842       O  0.87134817  0.65420960  0.16042783    -0.70600
Cu1843     Cu  0.93013804  0.60621403  0.18867247     1.04600
Cu1844     Cu  0.90102687  0.62911418  0.09253653     1.04300
C1845       C  0.87473261  0.65145807  0.22522463     0.95800
C1846       C  0.95643230  0.58387020  0.05598413     0.94900
C1847       C  0.96142773  0.66964554  0.13797021     0.87000
C1848       C  0.86973711  0.56568268  0.14323884     0.93300
N1849       N  0.82962456  0.96620011  0.82938593    -0.01000
C1850       C  0.82004480  0.94887042  0.88679095     0.01600
C1851       C  0.83866597  0.96105127  0.94264852    -0.21300
C1852       C  0.85902100  0.98809715  0.91907174    -0.21500
C1853       C  0.85073367  0.99271663  0.85009034     0.01500
H1854       H  0.83700299  0.95196060  0.99483809     0.15300
H1855       H  0.87407846  0.00551716  0.95161357     0.15300
N1856       N  0.83465434  0.94917021  0.76650870    -0.01000
C1857       C  0.85118994  0.91913779  0.75755383     0.01600
C1858       C  0.84668744  0.90821256  0.69102520    -0.21300
C1859       C  0.82663704  0.93160205  0.65853918    -0.21500
C1860       C  0.82051580  0.95754560  0.70505645     0.01500
H1861       H  0.85847559  0.88650572  0.66726285     0.15300
H1862       H  0.82085573  0.93120191  0.60430439     0.15300
N1863       N  0.83487339  0.51912801  0.70182325    -0.01000
C1864       C  0.84445303  0.53645777  0.64441803     0.01600
C1865       C  0.82583172  0.52427679  0.58856085    -0.21300
C1866       C  0.80547690  0.49723116  0.61213759    -0.21500
C1867       C  0.81376420  0.49261157  0.68111887     0.01500
H1868       H  0.82749429  0.53336854  0.53636828     0.15300
H1869       H  0.79042002  0.97981184  0.57959775     0.15300
N1870       N  0.82984364  0.53615796  0.76470054    -0.01000
C1871       C  0.81330803  0.56619007  0.77365497     0.01600
C1872       C  0.81781035  0.57711563  0.84018391    -0.21300
C1873       C  0.83786088  0.55372596  0.87266959    -0.21500
C1874       C  0.84398214  0.52778248  0.82615314     0.01500
H1875       H  0.80602277  0.59881999  0.86394310     0.15300
H1876       H  0.84364297  0.05412662  0.92690795     0.15300
N1877       N  0.82962554  0.71619951  0.70182180    -0.01000
C1878       C  0.82004607  0.69886885  0.64441597     0.01600
C1879       C  0.83866971  0.71104679  0.58855830    -0.21300
C1880       C  0.85902683  0.73809113  0.61213388    -0.21500
C1881       C  0.85073840  0.74271290  0.68111710     0.01500
H1882       H  0.83700775  0.70195294  0.53635949     0.15300
H1883       H  0.87408691  0.75550789  0.57959449     0.15300
N1884       N  0.83464987  0.69917134  0.76469978    -0.01000
C1885       C  0.85118255  0.66913821  0.77365455     0.01600
C1886       C  0.84667272  0.65821330  0.84018057    -0.21300
C1887       C  0.82662058  0.68160371  0.87266509    -0.21500
C1888       C  0.82050588  0.70754787  0.82615039     0.01500
H1889       H  0.85845876  0.63650476  0.86394342     0.15300
H1890       H  0.82083367  0.68120445  0.92690360     0.15300
N1891       N  0.82984815  0.78615682  0.76650913    -0.01000
C1892       C  0.81331552  0.81618973  0.75755439     0.01600
C1893       C  0.81782525  0.82711500  0.69102770    -0.21300
C1894       C  0.83787734  0.80372437  0.65854421    -0.21500
C1895       C  0.84399205  0.77778037  0.70505737     0.01500
H1896       H  0.80604080  0.84882078  0.66726947     0.15300
H1897       H  0.84366505  0.80412414  0.60429548     0.15300
N1898       N  0.83487243  0.76912867  0.82938670    -0.01000
C1899       C  0.84445174  0.78645927  0.88679276     0.01600
C1900       C  0.82582808  0.77428126  0.94265018    -0.21300
C1901       C  0.80547104  0.74723705  0.91907455    -0.21500
C1902       C  0.81375938  0.74261525  0.85009159     0.01500
H1903       H  0.82749035  0.78337518  0.99485015     0.15300
H1904       H  0.79041025  0.72981977  0.95161489     0.15300
N1905       N  0.99629205  0.96619939  0.95182220    -0.01000
C1906       C  0.98671254  0.94886861  0.89441535     0.01600
C1907       C  0.00533607  0.96104667  0.83855938    -0.21300
C1908       C  0.02569326  0.98809056  0.86213340    -0.21500
C1909       C  0.01740516  0.99271277  0.43111701     0.01500
H1910       H  0.00367331  0.95195045  0.78634804     0.15300
H1911       H  0.04075482  0.00550881  0.32959245     0.15300
N1912       N  0.66798296  0.94917125  0.01469986    -0.01000
C1913       C  0.68451550  0.91913792  0.02365515     0.01600
C1914       C  0.68000569  0.90821313  0.09018138    -0.21300
C1915       C  0.65995382  0.93160357  0.62266485    -0.21500
C1916       C  0.65383915  0.95754780  0.57615180     0.01500
H1917       H  0.69179256  0.88650352  0.11394438     0.15300
H1918       H  0.65416602  0.93120391  0.67691380     0.15300
N1919       N  0.99651493  0.53615679  0.51650927    -0.01000
C1920       C  0.97998234  0.56619008  0.50755443     0.01600
C1921       C  0.98449229  0.57711495  0.44102850    -0.21300
C1922       C  0.00454431  0.55372438  0.40854395    -0.21500
C1923       C  0.01065883  0.52778019  0.45505853     0.01500
H1924       H  0.97270637  0.59882370  0.41726555     0.15300
H1925       H  0.01033144  0.05412387  0.35430663     0.15300
N1926       N  0.66820590  0.51912865  0.57938713    -0.01000
C1927       C  0.67778542  0.53645928  0.63679299     0.01600
C1928       C  0.65916176  0.52428148  0.69265080    -0.21300
C1929       C  0.63880455  0.49723715  0.66907527    -0.21500
C1930       C  0.64709271  0.49261540  0.60009198     0.01500
H1931       H  0.66082377  0.53337521  0.74484888     0.15300
H1932       H  0.62374298  0.97981857  0.70161760     0.15300
N1933       N  0.99651020  0.78615801  0.01470057    -0.01000
C1934       C  0.97997423  0.81619007  0.02365521     0.01600
C1935       C  0.98447673  0.82711540  0.09018387    -0.21300
C1936       C  0.00452731  0.80372617  0.12266952    -0.21500
C1937       C  0.01064876  0.77778272  0.57615279     0.01500
H1938       H  0.97268810  0.84882205  0.11394595     0.15300
H1939       H  0.01030920  0.80412654  0.67690604     0.15300
N1940       N  0.66820670  0.76912800  0.95182319    -0.01000
C1941       C  0.67778617  0.78645781  0.89441801     0.01600
C1942       C  0.65916519  0.77427687  0.83856065    -0.21300
C1943       C  0.63881005  0.74723089  0.86213740    -0.21500
C1944       C  0.64709762  0.74261156  0.43111893     0.01500
H1945       H  0.66082747  0.78336795  0.78636874     0.15300
H1946       H  0.62375274  0.72981157  0.32959825     0.15300
N1947       N  0.99629136  0.71620008  0.57938565    -0.01000
C1948       C  0.98671178  0.69887031  0.63679103     0.01600
C1949       C  0.00533282  0.71105122  0.69264815    -0.21300
C1950       C  0.02568784  0.73809712  0.66907167    -0.21500
C1951       C  0.01740038  0.74271652  0.60008982     0.01500
H1952       H  0.00367000  0.70195977  0.74484089     0.15300
H1953       H  0.04074473  0.75551631  0.70161168     0.15300
N1954       N  0.66798781  0.69917004  0.51650847    -0.01000
C1955       C  0.68452370  0.66913786  0.50755374     0.01600
C1956       C  0.68002126  0.65821275  0.44102524    -0.21300
C1957       C  0.65997080  0.68160186  0.40853934    -0.21500
C1958       C  0.65384927  0.70754539  0.45505603     0.01500
H1959       H  0.69181061  0.63650521  0.41726266     0.15300
H1960       H  0.65418879  0.68120176  0.35430108     0.15300
O1961       O  0.77023217  0.91769909  0.84309215    -0.70400
O1962       O  0.70050611  0.83859233  0.84722665    -0.71400
O1963       O  0.70468126  0.90420948  0.91042817    -0.60000
O1964       O  0.76623790  0.85295501  0.78143680    -0.68500
O1965       O  0.79314984  0.83111852  0.87078086    -0.68000
O1966       O  0.73159304  0.88237285  0.99977212    -0.59300
O1967       O  0.72759891  0.81762883  0.93811651    -0.71800
O1968       O  0.79732488  0.89673564  0.93398244    -0.70600
Cu1969     Cu  0.73435990  0.87911410  0.84253662     1.04600
Cu1970     Cu  0.76347109  0.85621389  0.93867227     1.04300
C1971       C  0.79476078  0.91964542  0.88797014     0.95800
C1972       C  0.70307021  0.81568255  0.89323875     0.94900
C1973       C  0.70806557  0.90145787  0.97522488     0.87000
C1974       C  0.78976543  0.83387010  0.80598404     0.93300
O1975       O  0.93289981  0.85295700  0.99977068    -0.70400
O1976       O  0.87134905  0.90421125  0.87078216    -0.71400
O1977       O  0.86717039  0.83859516  0.93398201    -0.60000
O1978       O  0.93689789  0.91770020  0.93811737    -0.68500
O1979       O  0.96399385  0.89673283  0.84722709    -0.66000
O1980       O  0.89426655  0.81762776  0.84309171    -0.59300
O1981       O  0.89826443  0.88237086  0.78143824    -0.71800
O1982       O  0.95981524  0.83111677  0.91042681    -0.70600
Cu1983     Cu  0.90102473  0.87911607  0.93867246     1.04600
Cu1984     Cu  0.93013951  0.85621191  0.84253662     1.04300
C1985       C  0.95642774  0.83387019  0.97522386     0.95800
C1986       C  0.87473652  0.90145776  0.80598516     0.94900
C1987       C  0.86973617  0.81568358  0.88797004     0.87000
C1988       C  0.96142808  0.91964453  0.89323905     0.93300
O1989       O  0.79732740  0.64673284  0.59722707    -0.70400
O1990       O  0.72760017  0.56762777  0.59309170    -0.71400
O1991       O  0.73159800  0.63237088  0.53143829    -0.60000
O1992       O  0.79314883  0.58111686  0.66042697    -0.68500
O1993       O  0.76623353  0.60295730  0.74977083    -0.68000
O1994       O  0.70468266  0.65421128  0.62078204    -0.59300
O1995       O  0.70050406  0.58859530  0.68398200    -0.71800
O1996       O  0.77023132  0.66770032  0.68811715    -0.70600
Cu1997     Cu  0.76347313  0.60621194  0.59253665     1.04600
Cu1998     Cu  0.73435835  0.62911622  0.68867239     1.04300
C1999       C  0.79476161  0.66964455  0.64323876     0.95800
C2000       C  0.70306990  0.56568358  0.63797020     0.94900
C2001       C  0.70807024  0.65145794  0.55598510     0.87000
C2002       C  0.78976130  0.58387033  0.72522405     0.93300
O2003       O  0.89826003  0.63237319  0.74977211    -0.70400
O2004       O  0.95981667  0.58111857  0.62078106    -0.71400
O2005       O  0.96399184  0.64673571  0.68398225    -0.60000
O2006       O  0.89426569  0.56762909  0.68811688    -0.68500
O2007       O  0.86717307  0.58859253  0.59722670    -0.68000
O2008       O  0.93689908  0.66769927  0.59309237    -0.59300
O2009       O  0.93290492  0.60295524  0.53143689    -0.71800
O2010       O  0.87134816  0.65420958  0.66042796    -0.70600
Cu2011     Cu  0.93013800  0.60621404  0.68867238     1.04600
Cu2012     Cu  0.90102688  0.62911424  0.59253665     1.04300
C2013       C  0.87473256  0.65145811  0.72522477     0.95800
C2014       C  0.95643231  0.58387015  0.55598427     0.94900
C2015       C  0.96142768  0.66964558  0.63797023     0.87000
C2016       C  0.86973713  0.56568271  0.64323892     0.93300
loop_ 
_geom_bond_atom_site_label_1 
_geom_bond_atom_site_label_2 
_geom_bond_distance 
_geom_bond_site_symmetry_2 
_ccdc_geom_bond_type 
N1            C5   1.355       .  A
N1            C2   1.354       .  A
N1            N8   1.413       .  S
C2            C3   1.375       .  A
C2          C123   1.472       .  S
C3            C4   1.373       .  A
C3            H6   1.080       .  S
C4            C5   1.394       .  A
C4            H7   1.082       .  S
C5          C362   1.488       .  S
N8           C12   1.357       .  A
N8            C9   1.368       .  A
C9           C10   1.375       .  A
C9          C138   1.487       .  S
C10          C11   1.368       .  A
C10          H13   1.082       .  S
C11          C12   1.391       .  A
C11          H14   1.080       .  S
C12         C355   1.488       .  S
N15          C19   1.355   1_545  A
N15          C16   1.354       .  A
N15          N22   1.413       .  S
C16          C17   1.375       .  A
C16         C168   1.472       .  S
C17          C18   1.373   1_545  A
C17          H20   1.080       .  S
C18          C19   1.394       .  A
C18         H357   1.082       .  S
C19         C348   1.488       .  S
H21         C354   1.082       .  S
N22          C26   1.357       .  A
N22          C23   1.368       .  A
C23          C24   1.375       .  A
C23         C154   1.487       .  S
C24          C25   1.368       .  A
C24          H27   1.082       .  S
C25          C26   1.391       .  A
C25         H364   1.080       .  S
C26         C341   1.488   1_545  S
H28         C361   1.080       .  S
N29          C33   1.355       .  A
N29          C30   1.354       .  A
N29          N36   1.413       .  S
C30          C31   1.375       .  A
C30         C151   1.472       .  S
C31          C32   1.373       .  A
C31          H34   1.080       .  S
C32          C33   1.394       .  A
C32          H35   1.082       .  S
C33          C47   1.488       .  S
N36          C40   1.357       .  A
N36          C37   1.368       .  A
C37          C38   1.375       .  A
C37         C165   1.487       .  S
C38          C39   1.368       .  A
C38          H41   1.082       .  S
C39          C40   1.391       .  A
C39          H42   1.080       .  S
C40          C54   1.488       .  S
N43          C47   1.357       .  A
N43          C44   1.368       .  A
N43          N50   1.413       .  S
C44          C45   1.375       .  A
C44         C126   1.487       .  S
C45          C46   1.368       .  A
C45          H48   1.082       .  S
C46          C47   1.391       .  A
C46          H49   1.080       .  S
N50          C54   1.355       .  A
N50          C51   1.354       .  A
C51          C52   1.375       .  A
C51         C139   1.472       .  S
C52          C53   1.373       .  A
C52          H55   1.080       .  S
C53          C54   1.394       .  A
C53          H56   1.082       .  S
N57          C58   1.354       .  A
N57         C229   1.355       .  A
N57         N736   1.413       .  S
C58          C59   1.375       .  A
C58         C140   1.472       .  S
C59          C60   1.373       .  A
C59          H62   1.080       .  S
C60         C229   1.394       .  A
C60         H231   1.082       .  S
C61         N225   1.355       .  A
C61         C228   1.394       .  A
C61         C411   1.488       .  S
H63         C228   1.082       .  S
N64          C65   1.368       .  A
N64         C236   1.357   1_455  A
N64        N1401   1.413   1_455  S
C65          C66   1.375       .  A
C65         C125   1.487       .  S
C66         C235   1.368   1_455  A
C66          H69   1.081       .  S
C67          C68   1.391       .  A
C67         C234   1.368   1_655  A
C67          H70   1.080       .  S
C68         N232   1.357   1_655  A
C68         C418   1.488       .  S
N71          C75   1.357   1_554  A
N71          C72   1.368       .  A
N71         N750   1.413       .  S
C72          C73   1.375   1_554  A
C72         C166   1.487       .  S
C73          C74   1.368       .  A
C73          H76   1.082       .  S
C74          C75   1.391       .  A
C74         H413   1.080       .  S
C75         C397   1.488   1_545  S
H77         C410   1.080       .  S
N78          C82   1.355   1_445  A
N78          C79   1.354       .  A
N78        N1415   1.413   1_455  S
C79          C80   1.375   1_455  A
C79         C152   1.472       .  S
C80          C81   1.373   1_545  A
C80          H83   1.080       .  S
C81          C82   1.394       .  A
C81         H420   1.082       .  S
C82         C404   1.488       .  S
H84         C417   1.082       .  S
N85          C86   1.368       .  A
N85         C257   1.357       .  A
N85         N764   1.413       .  S
C86          C87   1.375       .  A
C86         C137   1.487       .  S
C87          C88   1.368       .  A
C87          H90   1.082       .  S
C88         C257   1.391       .  A
C88         H259   1.080       .  S
C89         N253   1.357       .  A
C89         C256   1.391       .  A
C89         C103   1.488       .  S
H91         C256   1.080       .  S
N92          C93   1.354       .  A
N92         C264   1.355   1_455  A
N92        N1429   1.413   1_455  S
C93          C94   1.375   1_455  A
C93         C124   1.472       .  S
C94          C95   1.373       .  A
C94          H97   1.080       .  S
C95         C264   1.394       .  A
C95         H266   1.082       .  S
C96         N260   1.355   1_655  A
C96         C263   1.394       .  A
C96         C110   1.488       .  S
H98         C263   1.082       .  S
N99         C103   1.355       .  A
N99         C100   1.354       .  A
N99         N778   1.413       .  S
C100        C101   1.375       .  A
C100        C167   1.472       .  S
C101        C102   1.373       .  A
C101        H104   1.080       .  S
C102        C103   1.394       .  A
C102        H105   1.082       .  S
N106        C110   1.357   1_454  A
N106        C107   1.368       .  A
N106       N1443   1.413   1_455  S
C107        C108   1.375   1_554  A
C107        C153   1.487       .  S
C108        C109   1.368   1_455  A
C108        H111   1.082       .  S
C109        C110   1.391       .  A
C109        H112   1.080       .  S
O113       Cu121   2.004       .  S
O113        C123   1.276       .  A
O114       Cu121   2.015       .  S
O114        C124   1.278       .  A
O115       Cu121   2.016       .  S
O115        C125   1.275       .  A
O116       Cu121   2.004       .  S
O116        C126   1.277       .  A
O117       Cu122   2.016       .  S
O117        C126   1.275       .  A
O118       Cu122   2.004       .  S
O118        C125   1.277       .  A
O119       Cu122   2.004       .  S
O119        C124   1.276       .  A
O120       Cu122   2.015       .  S
O120        C123   1.278       .  A
Cu121      Cu122   2.368       .  S
O127       Cu135   2.005       .  S
O127        C137   1.277       .  A
O128       Cu135   2.016       .  S
O128        C138   1.275       .  A
O129       Cu135   2.015       .  S
O129        C139   1.278       .  A
O130       Cu135   2.004       .  S
O130        C140   1.276       .  A
O131       Cu136   2.015       .  S
O131        C140   1.278       .  A
O132       Cu136   2.004       .  S
O132        C139   1.276       .  A
O133       Cu136   2.005       .  S
O133        C138   1.277       .  A
O134       Cu136   2.016       .  S
O134        C137   1.275       .  A
Cu135      Cu136   2.368       .  S
O141       Cu149   2.015       .  S
O141        C151   1.278       .  A
O142       Cu149   2.004       .  S
O142        C152   1.276       .  A
O143       Cu149   2.005       .  S
O143        C153   1.277       .  A
O144       Cu149   2.016       .  S
O144        C154   1.275       .  A
O145       Cu150   2.005       .  S
O145        C154   1.277       .  A
O146       Cu150   2.016       .  S
O146        C153   1.275       .  A
O147       Cu150   2.015       .  S
O147        C152   1.278       .  A
O148       Cu150   2.004       .  S
O148        C151   1.276       .  A
Cu149      Cu150   2.368       .  S
O155       Cu163   2.004       .  S
O155        C165   1.277       .  A
O156       Cu163   2.016       .  S
O156        C166   1.275       .  A
O157       Cu163   2.015       .  S
O157        C167   1.278       .  A
O158       Cu163   2.004       .  S
O158        C168   1.276       .  A
O159       Cu164   2.015       .  S
O159        C168   1.278       .  A
O160       Cu164   2.004       .  S
O160        C167   1.276       .  A
O161       Cu164   2.004       .  S
O161        C166   1.277       .  A
O162       Cu164   2.016       .  S
O162        C165   1.275       .  A
Cu163      Cu164   2.368       .  S
N169        C173   1.355       .  A
N169        C170   1.354       .  A
N169        N176   1.413       .  S
C170        C171   1.375       .  A
C170        C291   1.472       .  S
C171        C172   1.373       .  A
C171        H174   1.080       .  S
C172        C173   1.394       .  A
C172        H175   1.082       .  S
C173        C530   1.488       .  S
N176        C180   1.357       .  A
N176        C177   1.368       .  A
C177        C178   1.375       .  A
C177        C306   1.487       .  S
C178        C179   1.368       .  A
C178        H181   1.082       .  S
C179        C180   1.391       .  A
C179        H182   1.080       .  S
C180        C523   1.488       .  S
N183        C187   1.355   1_545  A
N183        C184   1.354       .  A
N183        N190   1.413       .  S
C184        C185   1.375       .  A
C184        C336   1.472       .  S
C185        C186   1.373   1_545  A
C185        H188   1.080       .  S
C186        C187   1.394       .  A
C186        H525   1.082       .  S
C187        C516   1.488       .  S
H189        C522   1.082       .  S
N190        C194   1.357       .  A
N190        C191   1.368       .  A
C191        C192   1.375       .  A
C191        C322   1.487       .  S
C192        C193   1.368       .  A
C192        H195   1.082       .  S
C193        C194   1.391       .  A
C193        H532   1.080       .  S
C194        C509   1.488   1_545  S
H196        C529   1.080       .  S
N197        C201   1.355       .  A
N197        C198   1.354       .  A
N197        N204   1.413       .  S
C198        C199   1.375       .  A
C198        C319   1.472       .  S
C199        C200   1.373       .  A
C199        H202   1.080       .  S
C200        C201   1.394       .  A
C200        H203   1.082       .  S
C201        C215   1.488       .  S
N204        C208   1.357       .  A
N204        C205   1.368       .  A
C205        C206   1.375       .  A
C205        C333   1.487       .  S
C206        C207   1.368       .  A
C206        H209   1.082       .  S
C207        C208   1.391       .  A
C207        H210   1.080       .  S
C208        C222   1.488       .  S
N211        C215   1.357       .  A
N211        C212   1.368       .  A
N211        N218   1.413       .  S
C212        C213   1.375       .  A
C212        C294   1.487       .  S
C213        C214   1.368       .  A
C213        H216   1.082       .  S
C214        C215   1.391       .  A
C214        H217   1.080       .  S
N218        C222   1.355       .  A
N218        C219   1.354       .  A
C219        C220   1.375       .  A
C219        C307   1.472       .  S
C220        C221   1.373       .  A
C220        H223   1.080       .  S
C221        C222   1.394       .  A
C221        H224   1.082       .  S
N225        C226   1.354       .  A
N225        N904   1.413   1_556  S
C226        C227   1.375       .  A
C226        C308   1.472       .  S
C227        C228   1.373       .  A
C227        H230   1.080       .  S
C229        C579   1.488       .  S
N232        C233   1.368       .  A
N232       N1569   1.413   1_454  S
C233        C234   1.375       .  A
C233        C293   1.487   1_554  S
C234        H237   1.082       .  S
C235        C236   1.391       .  A
C235        H238   1.080       .  S
C236        C586   1.488       .  S
N239        C243   1.357       .  A
N239        C240   1.368       .  A
N239        N918   1.413       .  S
C240        C241   1.375       .  A
C240        C334   1.487       .  S
C241        C242   1.368       .  A
C241        H244   1.082       .  S
C242        C243   1.391       .  A
C242        H581   1.080       .  S
C243        C565   1.488   1_545  S
H245        C578   1.080       .  S
N246        C250   1.355   1_445  A
N246        C247   1.354       .  A
N246       N1583   1.413   1_455  S
C247        C248   1.375   1_455  A
C247        C320   1.472       .  S
C248        C249   1.373   1_545  A
C248        H251   1.080       .  S
C249        C250   1.394       .  A
C249        H588   1.082       .  S
C250        C572   1.488       .  S
H252        C585   1.082       .  S
N253        C254   1.368       .  A
N253        N932   1.413   1_554  S
C254        C255   1.375       .  A
C254        C305   1.487   1_554  S
C255        C256   1.368       .  A
C255        H258   1.082       .  S
C257        C271   1.488       .  S
N260        C261   1.354       .  A
N260       N1597   1.413   1_456  S
C261        C262   1.375   1_455  A
C261        C292   1.472       .  S
C262        C263   1.373       .  A
C262        H265   1.080       .  S
C264        C278   1.488       .  S
N267        C271   1.355       .  A
N267        C268   1.354       .  A
N267        N946   1.413       .  S
C268        C269   1.375       .  A
C268        C335   1.472       .  S
C269        C270   1.373       .  A
C269        H272   1.080       .  S
C270        C271   1.394       .  A
C270        H273   1.082       .  S
N274        C278   1.357   1_455  A
N274        C275   1.368       .  A
N274       N1611   1.413   1_455  S
C275        C276   1.375       .  A
C275        C321   1.487       .  S
C276        C277   1.368   1_455  A
C276        H279   1.082       .  S
C277        C278   1.391       .  A
C277        H280   1.080       .  S
O281       Cu289   2.004       .  S
O281        C291   1.276       .  A
O282       Cu289   2.015       .  S
O282        C292   1.278       .  A
O283       Cu289   2.016       .  S
O283        C293   1.275       .  A
O284       Cu289   2.004       .  S
O284        C294   1.277       .  A
O285       Cu290   2.016       .  S
O285        C294   1.275       .  A
O286       Cu290   2.004       .  S
O286        C293   1.277       .  A
O287       Cu290   2.004       .  S
O287        C292   1.276       .  A
O288       Cu290   2.015       .  S
O288        C291   1.278       .  A
Cu289      Cu290   2.368       .  S
O295       Cu303   2.005       .  S
O295        C305   1.277       .  A
O296       Cu303   2.016       .  S
O296        C306   1.275       .  A
O297       Cu303   2.015       .  S
O297        C307   1.278       .  A
O298       Cu303   2.004       .  S
O298        C308   1.276       .  A
O299       Cu304   2.015       .  S
O299        C308   1.278       .  A
O300       Cu304   2.004       .  S
O300        C307   1.276       .  A
O301       Cu304   2.005       .  S
O301        C306   1.277       .  A
O302       Cu304   2.016       .  S
O302        C305   1.275       .  A
Cu303      Cu304   2.368       .  S
O309       Cu317   2.015       .  S
O309        C319   1.278       .  A
O310       Cu317   2.004       .  S
O310        C320   1.276       .  A
O311       Cu317   2.005       .  S
O311        C321   1.277       .  A
O312       Cu317   2.016       .  S
O312        C322   1.275       .  A
O313       Cu318   2.005       .  S
O313        C322   1.277       .  A
O314       Cu318   2.016       .  S
O314        C321   1.275       .  A
O315       Cu318   2.015       .  S
O315        C320   1.278       .  A
O316       Cu318   2.004       .  S
O316        C319   1.276       .  A
Cu317      Cu318   2.368       .  S
O323       Cu331   2.004       .  S
O323        C333   1.277       .  A
O324       Cu331   2.016       .  S
O324        C334   1.275       .  A
O325       Cu331   2.015       .  S
O325        C335   1.278       .  A
O326       Cu331   2.004       .  S
O326        C336   1.276       .  A
O327       Cu332   2.015       .  S
O327        C336   1.278       .  A
O328       Cu332   2.004       .  S
O328        C335   1.276       .  A
O329       Cu332   2.004       .  S
O329        C334   1.277       .  A
O330       Cu332   2.016       .  S
O330        C333   1.275       .  A
Cu331      Cu332   2.368       .  S
N337        C341   1.355       .  A
N337        C338   1.354       .  A
N337        N344   1.413       .  S
C338        C339   1.375       .  A
C338        C459   1.472       .  S
C339        C340   1.373       .  A
C339        H342   1.080       .  S
C340        C341   1.394       .  A
C340        H343   1.082   1_565  S
N344        C348   1.357       .  A
N344        C345   1.368       .  A
C345        C346   1.375       .  A
C345        C474   1.487       .  S
C346        C347   1.368       .  A
C346        H349   1.082       .  S
C347        C348   1.391       .  A
C347        H350   1.080       .  S
N351        C355   1.355       .  A
N351        C352   1.354       .  A
N351        N358   1.413       .  S
C352        C353   1.375       .  A
C352        C504   1.472       .  S
C353        C354   1.373       .  A
C353        H356   1.080       .  S
C354        C355   1.394       .  A
N358        C362   1.357       .  A
N358        C359   1.368       .  A
C359        C360   1.375       .  A
C359        C490   1.487       .  S
C360        C361   1.368       .  A
C360        H363   1.082       .  S
C361        C362   1.391       .  A
N365        C369   1.355       .  A
N365        C366   1.354       .  A
N365        N372   1.413       .  S
C366        C367   1.375       .  A
C366        C487   1.472       .  S
C367        C368   1.373       .  A
C367        H370   1.080       .  S
C368        C369   1.394       .  A
C368        H371   1.082       .  S
C369        C383   1.488       .  S
N372        C376   1.357       .  A
N372        C373   1.368       .  A
C373        C374   1.375       .  A
C373        C501   1.487       .  S
C374        C375   1.368       .  A
C374        H377   1.082       .  S
C375        C376   1.391       .  A
C375        H378   1.080       .  S
C376        C390   1.488       .  S
N379        C383   1.357       .  A
N379        C380   1.368       .  A
N379        N386   1.413       .  S
C380        C381   1.375       .  A
C380        C462   1.487       .  S
C381        C382   1.368       .  A
C381        H384   1.082       .  S
C382        C383   1.391       .  A
C382        H385   1.080       .  S
N386        C390   1.355       .  A
N386        C387   1.354       .  A
C387        C388   1.375       .  A
C387        C475   1.472       .  S
C388        C389   1.373       .  A
C388        H391   1.080       .  S
C389        C390   1.394       .  A
C389        H392   1.082       .  S
N393        C565   1.355       .  A
N393        C394   1.354       .  A
N393       N1072   1.413       .  S
C394        C395   1.375       .  A
C394        C476   1.472       .  S
C395        C396   1.373       .  A
C395        H398   1.080       .  S
C396        C565   1.394       .  A
C396        H567   1.082   1_565  S
C397        N561   1.355       .  A
C397        C564   1.394       .  A
H399        C564   1.082   1_545  S
N400        C572   1.357   1_455  A
N400        C401   1.368       .  A
N400       N1737   1.413   1_455  S
C401        C402   1.375       .  A
C401        C461   1.487       .  S
C402        C571   1.368   1_455  A
C402        H405   1.082       .  S
C403        C570   1.368   1_655  A
C403        C404   1.391       .  A
C403        H406   1.080       .  S
C404        N568   1.357   1_655  A
N407        C411   1.357   1_554  A
N407        C408   1.368       .  A
N407       N1086   1.413       .  S
C408        C409   1.375   1_554  A
C408        C502   1.487       .  S
C409        C410   1.368       .  A
C409        H412   1.082       .  S
C410        C411   1.391       .  A
N414        C418   1.355   1_455  A
N414        C415   1.354       .  A
N414       N1751   1.413   1_455  S
C415        C416   1.375   1_455  A
C415        C488   1.472       .  S
C416        C417   1.373       .  A
C416        H419   1.080       .  S
C417        C418   1.394       .  A
N421        C593   1.357       .  A
N421        C422   1.368       .  A
N421       N1100   1.413       .  S
C422        C423   1.375       .  A
C422        C473   1.487       .  S
C423        C424   1.368       .  A
C423        H426   1.082       .  S
C424        C593   1.391       .  A
C424        H595   1.080       .  S
C425        N589   1.357       .  A
C425        C592   1.391       .  A
C425        C439   1.488       .  S
H427        C592   1.080       .  S
N428        C600   1.355   1_455  A
N428        C429   1.354       .  A
N428       N1765   1.413   1_455  S
C429        C430   1.375   1_455  A
C429        C460   1.472       .  S
C430        C431   1.373       .  A
C430        H433   1.080       .  S
C431        C600   1.394       .  A
C431        H602   1.082       .  S
C432        N596   1.355   1_655  A
C432        C599   1.394       .  A
C432        C446   1.488       .  S
H434        C599   1.082       .  S
N435        C439   1.355       .  A
N435        C436   1.354       .  A
N435       N1114   1.413       .  S
C436        C437   1.375       .  A
C436        C503   1.472       .  S
C437        C438   1.373       .  A
C437        H440   1.080       .  S
C438        C439   1.394       .  A
C438        H441   1.082       .  S
N442        C446   1.357   1_454  A
N442        C443   1.368       .  A
N442       N1779   1.413   1_455  S
C443        C444   1.375   1_554  A
C443        C489   1.487       .  S
C444        C445   1.368   1_455  A
C444        H447   1.082       .  S
C445        C446   1.391       .  A
C445        H448   1.080       .  S
O449       Cu457   2.004       .  S
O449        C459   1.276       .  A
O450       Cu457   2.015       .  S
O450        C460   1.278       .  A
O451       Cu457   2.016       .  S
O451        C461   1.275       .  A
O452       Cu457   2.004       .  S
O452        C462   1.277       .  A
O453       Cu458   2.016       .  S
O453        C462   1.275       .  A
O454       Cu458   2.004       .  S
O454        C461   1.277       .  A
O455       Cu458   2.004       .  S
O455        C460   1.276       .  A
O456       Cu458   2.015       .  S
O456        C459   1.278       .  A
Cu457      Cu458   2.368       .  S
O463       Cu471   2.005       .  S
O463        C473   1.277       .  A
O464       Cu471   2.016       .  S
O464        C474   1.275       .  A
O465       Cu471   2.015       .  S
O465        C475   1.278       .  A
O466       Cu471   2.004       .  S
O466        C476   1.276       .  A
O467       Cu472   2.015       .  S
O467        C476   1.278       .  A
O468       Cu472   2.004       .  S
O468        C475   1.276       .  A
O469       Cu472   2.005       .  S
O469        C474   1.277       .  A
O470       Cu472   2.016       .  S
O470        C473   1.275       .  A
Cu471      Cu472   2.368       .  S
O477       Cu485   2.015       .  S
O477        C487   1.278       .  A
O478       Cu485   2.004       .  S
O478        C488   1.276       .  A
O479       Cu485   2.005       .  S
O479        C489   1.277       .  A
O480       Cu485   2.016       .  S
O480        C490   1.275       .  A
O481       Cu486   2.005       .  S
O481        C490   1.277       .  A
O482       Cu486   2.016       .  S
O482        C489   1.275       .  A
O483       Cu486   2.015       .  S
O483        C488   1.278       .  A
O484       Cu486   2.004       .  S
O484        C487   1.276       .  A
Cu485      Cu486   2.368       .  S
O491       Cu499   2.004       .  S
O491        C501   1.277       .  A
O492       Cu499   2.016       .  S
O492        C502   1.275       .  A
O493       Cu499   2.015       .  S
O493        C503   1.278       .  A
O494       Cu499   2.004       .  S
O494        C504   1.276       .  A
O495       Cu500   2.015       .  S
O495        C504   1.278       .  A
O496       Cu500   2.004       .  S
O496        C503   1.276       .  A
O497       Cu500   2.004       .  S
O497        C502   1.277       .  A
O498       Cu500   2.016       .  S
O498        C501   1.275       .  A
Cu499      Cu500   2.368       .  S
N505        C509   1.355       .  A
N505        C506   1.354       .  A
N505        N512   1.413       .  S
C506        C507   1.375       .  A
C506        C627   1.472       .  S
C507        C508   1.373       .  A
C507        H510   1.080       .  S
C508        C509   1.394       .  A
C508        H511   1.082   1_565  S
N512        C516   1.357       .  A
N512        C513   1.368       .  A
C513        C514   1.375       .  A
C513        C642   1.487       .  S
C514        C515   1.368       .  A
C514        H517   1.082       .  S
C515        C516   1.391       .  A
C515        H518   1.080       .  S
N519        C523   1.355       .  A
N519        C520   1.354       .  A
N519        N526   1.413       .  S
C520        C521   1.375       .  A
C520        C672   1.472       .  S
C521        C522   1.373       .  A
C521        H524   1.080       .  S
C522        C523   1.394       .  A
N526        C530   1.357       .  A
N526        C527   1.368       .  A
C527        C528   1.375       .  A
C527        C658   1.487       .  S
C528        C529   1.368       .  A
C528        H531   1.081       .  S
C529        C530   1.391       .  A
N533        C537   1.355       .  A
N533        C534   1.354       .  A
N533        N540   1.413       .  S
C534        C535   1.375       .  A
C534        C655   1.472       .  S
C535        C536   1.373       .  A
C535        H538   1.080       .  S
C536        C537   1.394       .  A
C536        H539   1.082       .  S
C537        C551   1.488       .  S
N540        C544   1.357       .  A
N540        C541   1.368       .  A
C541        C542   1.375       .  A
C541        C669   1.487       .  S
C542        C543   1.368       .  A
C542        H545   1.082       .  S
C543        C544   1.391       .  A
C543        H546   1.080       .  S
C544        C558   1.488       .  S
N547        C551   1.357       .  A
N547        C548   1.368       .  A
N547        N554   1.413       .  S
C548        C549   1.375       .  A
C548        C630   1.487       .  S
C549        C550   1.368       .  A
C549        H552   1.082       .  S
C550        C551   1.391       .  A
C550        H553   1.080       .  S
N554        C558   1.355       .  A
N554        C555   1.354       .  A
C555        C556   1.375       .  A
C555        C643   1.472       .  S
C556        C557   1.373       .  A
C556        H559   1.080       .  S
C557        C558   1.394       .  A
C557        H560   1.082       .  S
N561        C562   1.354       .  A
N561       N1240   1.413   1_556  S
C562        C563   1.375       .  A
C562        C644   1.472       .  S
C563        C564   1.373       .  A
C563        H566   1.080       .  S
N568        C569   1.368       .  A
N568       N1905   1.413   1_454  S
C569        C570   1.375       .  A
C569        C629   1.487   1_554  S
C570        H573   1.082       .  S
C571        C572   1.391       .  A
C571        H574   1.080       .  S
N575        C579   1.357       .  A
N575        C576   1.368       .  A
N575       N1254   1.413       .  S
C576        C577   1.375       .  A
C576        C670   1.487       .  S
C577        C578   1.368       .  A
C577        H580   1.082       .  S
C578        C579   1.391       .  A
N582        C586   1.355   1_455  A
N582        C583   1.354       .  A
N582       N1919   1.413   1_455  S
C583        C584   1.375   1_455  A
C583        C656   1.472       .  S
C584        C585   1.373       .  A
C584        H587   1.080       .  S
C585        C586   1.394       .  A
N589        C590   1.368       .  A
N589       N1268   1.413   1_554  S
C590        C591   1.375       .  A
C590        C641   1.487   1_554  S
C591        C592   1.368       .  A
C591        H594   1.082       .  S
C593        C607   1.488       .  S
N596        C597   1.354       .  A
N596       N1933   1.413   1_456  S
C597        C598   1.375   1_455  A
C597        C628   1.472       .  S
C598        C599   1.373       .  A
C598        H601   1.080       .  S
C600        C614   1.488       .  S
N603        C607   1.355       .  A
N603        C604   1.354       .  A
N603       N1282   1.413       .  S
C604        C605   1.375       .  A
C604        C671   1.472       .  S
C605        C606   1.373       .  A
C605        H608   1.080       .  S
C606        C607   1.394       .  A
C606        H609   1.082       .  S
N610        C614   1.357   1_455  A
N610        C611   1.368       .  A
N610       N1947   1.413   1_455  S
C611        C612   1.375       .  A
C611        C657   1.487       .  S
C612        C613   1.368   1_455  A
C612        H615   1.082       .  S
C613        C614   1.391       .  A
C613        H616   1.080       .  S
O617       Cu625   2.004       .  S
O617        C627   1.276       .  A
O618       Cu625   2.015       .  S
O618        C628   1.278       .  A
O619       Cu625   2.016       .  S
O619        C629   1.275       .  A
O620       Cu625   2.004       .  S
O620        C630   1.277       .  A
O621       Cu626   2.016       .  S
O621        C630   1.275       .  A
O622       Cu626   2.004       .  S
O622        C629   1.277       .  A
O623       Cu626   2.004       .  S
O623        C628   1.276       .  A
O624       Cu626   2.015       .  S
O624        C627   1.278       .  A
Cu625      Cu626   2.368       .  S
O631       Cu639   2.005       .  S
O631        C641   1.277       .  A
O632       Cu639   2.016       .  S
O632        C642   1.275       .  A
O633       Cu639   2.015       .  S
O633        C643   1.278       .  A
O634       Cu639   2.004       .  S
O634        C644   1.276       .  A
O635       Cu640   2.015       .  S
O635        C644   1.278       .  A
O636       Cu640   2.004       .  S
O636        C643   1.276       .  A
O637       Cu640   2.005       .  S
O637        C642   1.277       .  A
O638       Cu640   2.016       .  S
O638        C641   1.275       .  A
Cu639      Cu640   2.368       .  S
O645       Cu653   2.015       .  S
O645        C655   1.278       .  A
O646       Cu653   2.004       .  S
O646        C656   1.276       .  A
O647       Cu653   2.005       .  S
O647        C657   1.277       .  A
O648       Cu653   2.016       .  S
O648        C658   1.275       .  A
O649       Cu654   2.005       .  S
O649        C658   1.277       .  A
O650       Cu654   2.016       .  S
O650        C657   1.275       .  A
O651       Cu654   2.015       .  S
O651        C656   1.278       .  A
O652       Cu654   2.004       .  S
O652        C655   1.276       .  A
Cu653      Cu654   2.368       .  S
O659       Cu667   2.004       .  S
O659        C669   1.277       .  A
O660       Cu667   2.016       .  S
O660        C670   1.275       .  A
O661       Cu667   2.015       .  S
O661        C671   1.278       .  A
O662       Cu667   2.004       .  S
O662        C672   1.276       .  A
O663       Cu668   2.015       .  S
O663        C672   1.278       .  A
O664       Cu668   2.004       .  S
O664        C671   1.276       .  A
O665       Cu668   2.004       .  S
O665        C670   1.277       .  A
O666       Cu668   2.016       .  S
O666        C669   1.275       .  A
Cu667      Cu668   2.368       .  S
N673        C677   1.355       .  A
N673        C674   1.354       .  A
N673        N680   1.413       .  S
C674        C675   1.375       .  A
C674        C795   1.472       .  S
C675        C676   1.373       .  A
C675        H678   1.080       .  S
C676        C677   1.394       .  A
C676        H679   1.082       .  S
C677       C1034   1.488       .  S
N680        C684   1.357       .  A
N680        C681   1.368       .  A
C681        C682   1.375       .  A
C681        C810   1.487       .  S
C682        C683   1.368       .  A
C682        H685   1.082       .  S
C683        C684   1.391       .  A
C683        H686   1.080       .  S
C684       C1027   1.488       .  S
N687        C691   1.355   1_545  A
N687        C688   1.354       .  A
N687        N694   1.413       .  S
C688        C689   1.375       .  A
C688        C840   1.472       .  S
C689        C690   1.373   1_545  A
C689        H692   1.080       .  S
C690        C691   1.394       .  A
C690       H1029   1.082       .  S
C691       C1020   1.488       .  S
H693       C1026   1.082       .  S
N694        C698   1.357       .  A
N694        C695   1.368       .  A
C695        C696   1.375       .  A
C695        C826   1.487       .  S
C696        C697   1.368       .  A
C696        H699   1.082       .  S
C697        C698   1.391       .  A
C697       H1036   1.080       .  S
C698       C1013   1.488   1_545  S
H700       C1033   1.080       .  S
N701        C705   1.355       .  A
N701        C702   1.354       .  A
N701        N708   1.413       .  S
C702        C703   1.375       .  A
C702        C823   1.472       .  S
C703        C704   1.373       .  A
C703        H706   1.080       .  S
C704        C705   1.394       .  A
C704        H707   1.082       .  S
C705        C719   1.488       .  S
N708        C712   1.357       .  A
N708        C709   1.368       .  A
C709        C710   1.375       .  A
C709        C837   1.487       .  S
C710        C711   1.368       .  A
C710        H713   1.082       .  S
C711        C712   1.391       .  A
C711        H714   1.080       .  S
C712        C726   1.488       .  S
N715        C719   1.357       .  A
N715        C716   1.368       .  A
N715        N722   1.413       .  S
C716        C717   1.375       .  A
C716        C798   1.487       .  S
C717        C718   1.368       .  A
C717        H720   1.082       .  S
C718        C719   1.391       .  A
C718        H721   1.080       .  S
N722        C726   1.355       .  A
N722        C723   1.354       .  A
C723        C724   1.375       .  A
C723        C811   1.472       .  S
C724        C725   1.373       .  A
C724        H727   1.080       .  S
C725        C726   1.394       .  A
C725        H728   1.082       .  S
N729        C901   1.355       .  A
N729        C730   1.354       .  A
N729       N1408   1.413       .  S
C730        C731   1.375       .  A
C730        C812   1.472       .  S
C731        C732   1.373       .  A
C731        H734   1.080       .  S
C732        C901   1.394       .  A
C732        H903   1.082       .  S
C733        N897   1.355       .  A
C733        C900   1.394       .  A
C733       C1083   1.488       .  S
H735        C900   1.082       .  S
N736        C908   1.357       .  A
N736        C737   1.368       .  A
C737        C738   1.375       .  A
C737        C797   1.487       .  S
C738        C907   1.368       .  A
C738        H741   1.082       .  S
C739        C906   1.368       .  A
C739        C740   1.391       .  A
C739        H742   1.080       .  S
C740        N904   1.357       .  A
C740       C1090   1.488       .  S
N743        C747   1.357   1_554  A
N743        C744   1.368       .  A
N743       N1422   1.413       .  S
C744        C745   1.375   1_554  A
C744        C838   1.487       .  S
C745        C746   1.368       .  A
C745        H748   1.082       .  S
C746        C747   1.391       .  A
C746       H1085   1.080       .  S
C747       C1069   1.488   1_545  S
H749       C1082   1.080       .  S
N750        C754   1.355   1_545  A
N750        C751   1.354       .  A
C751        C752   1.375       .  A
C751        C824   1.472       .  S
C752        C753   1.373   1_545  A
C752        H755   1.080       .  S
C753        C754   1.394       .  A
C753       H1092   1.082       .  S
C754       C1076   1.488       .  S
H756       C1089   1.082       .  S
N757        C929   1.357       .  A
N757        C758   1.368       .  A
N757       N1436   1.413       .  S
C758        C759   1.375       .  A
C758        C809   1.487       .  S
C759        C760   1.368       .  A
C759        H762   1.082       .  S
C760        C929   1.391       .  A
C760        H931   1.080       .  S
C761        N925   1.357       .  A
C761        C928   1.391       .  A
C761        C775   1.488       .  S
H763        C928   1.080       .  S
N764        C936   1.355       .  A
N764        C765   1.354       .  A
C765        C766   1.375       .  A
C765        C796   1.472       .  S
C766        C767   1.373       .  A
C766        H769   1.080       .  S
C767        C936   1.394       .  A
C767        H938   1.082       .  S
C768        N932   1.355       .  A
C768        C935   1.394       .  A
C768        C782   1.488       .  S
H770        C935   1.082       .  S
N771        C775   1.355       .  A
N771        C772   1.354       .  A
N771       N1450   1.413       .  S
C772        C773   1.375       .  A
C772        C839   1.472       .  S
C773        C774   1.373       .  A
C773        H776   1.080       .  S
C774        C775   1.394       .  A
C774        H777   1.082       .  S
N778        C782   1.357   1_554  A
N778        C779   1.368       .  A
C779        C780   1.375   1_554  A
C779        C825   1.487       .  S
C780        C781   1.368       .  A
C780        H783   1.082       .  S
C781        C782   1.391       .  A
C781        H784   1.080       .  S
O785       Cu793   2.004       .  S
O785        C795   1.276       .  A
O786       Cu793   2.015       .  S
O786        C796   1.278       .  A
O787       Cu793   2.016       .  S
O787        C797   1.275       .  A
O788       Cu793   2.004       .  S
O788        C798   1.277       .  A
O789       Cu794   2.016       .  S
O789        C798   1.275       .  A
O790       Cu794   2.004       .  S
O790        C797   1.277       .  A
O791       Cu794   2.004       .  S
O791        C796   1.276       .  A
O792       Cu794   2.015       .  S
O792        C795   1.278       .  A
Cu793      Cu794   2.368       .  S
O799       Cu807   2.005       .  S
O799        C809   1.277       .  A
O800       Cu807   2.016       .  S
O800        C810   1.275       .  A
O801       Cu807   2.015       .  S
O801        C811   1.278       .  A
O802       Cu807   2.004       .  S
O802        C812   1.276       .  A
O803       Cu808   2.015       .  S
O803        C812   1.278       .  A
O804       Cu808   2.004       .  S
O804        C811   1.276       .  A
O805       Cu808   2.005       .  S
O805        C810   1.277       .  A
O806       Cu808   2.016       .  S
O806        C809   1.275       .  A
Cu807      Cu808   2.368       .  S
O813       Cu821   2.015       .  S
O813        C823   1.278       .  A
O814       Cu821   2.004       .  S
O814        C824   1.276       .  A
O815       Cu821   2.005       .  S
O815        C825   1.277       .  A
O816       Cu821   2.016       .  S
O816        C826   1.275       .  A
O817       Cu822   2.005       .  S
O817        C826   1.277       .  A
O818       Cu822   2.016       .  S
O818        C825   1.275       .  A
O819       Cu822   2.015       .  S
O819        C824   1.278       .  A
O820       Cu822   2.004       .  S
O820        C823   1.276       .  A
Cu821      Cu822   2.368       .  S
O827       Cu835   2.004       .  S
O827        C837   1.277       .  A
O828       Cu835   2.016       .  S
O828        C838   1.275       .  A
O829       Cu835   2.015       .  S
O829        C839   1.278       .  A
O830       Cu835   2.004       .  S
O830        C840   1.276       .  A
O831       Cu836   2.015       .  S
O831        C840   1.278       .  A
O832       Cu836   2.004       .  S
O832        C839   1.276       .  A
O833       Cu836   2.004       .  S
O833        C838   1.277       .  A
O834       Cu836   2.016       .  S
O834        C837   1.275       .  A
Cu835      Cu836   2.368       .  S
N841        C845   1.355       .  A
N841        C842   1.354       .  A
N841        N848   1.413       .  S
C842        C843   1.375       .  A
C842        C963   1.472       .  S
C843        C844   1.373       .  A
C843        H846   1.080       .  S
C844        C845   1.394       .  A
C844        H847   1.082       .  S
C845       C1202   1.488       .  S
N848        C852   1.357       .  A
N848        C849   1.368       .  A
C849        C850   1.375       .  A
C849        C978   1.487       .  S
C850        C851   1.368       .  A
C850        H853   1.082       .  S
C851        C852   1.391       .  A
C851        H854   1.080       .  S
C852       C1195   1.488       .  S
N855        C859   1.355   1_545  A
N855        C856   1.354       .  A
N855        N862   1.413       .  S
C856        C857   1.375       .  A
C856       C1008   1.472       .  S
C857        C858   1.373   1_545  A
C857        H860   1.080       .  S
C858        C859   1.394       .  A
C858       H1197   1.082       .  S
C859       C1188   1.488       .  S
H861       C1194   1.082       .  S
N862        C866   1.357       .  A
N862        C863   1.368       .  A
C863        C864   1.375       .  A
C863        C994   1.487       .  S
C864        C865   1.368       .  A
C864        H867   1.082       .  S
C865        C866   1.391       .  A
C865       H1204   1.080       .  S
C866       C1181   1.488   1_545  S
H868       C1201   1.080       .  S
N869        C873   1.355       .  A
N869        C870   1.354       .  A
N869        N876   1.413       .  S
C870        C871   1.375       .  A
C870        C991   1.472       .  S
C871        C872   1.373       .  A
C871        H874   1.080       .  S
C872        C873   1.394       .  A
C872        H875   1.082       .  S
C873        C887   1.488       .  S
N876        C880   1.357       .  A
N876        C877   1.368       .  A
C877        C878   1.375       .  A
C877       C1005   1.487       .  S
C878        C879   1.368       .  A
C878        H881   1.082       .  S
C879        C880   1.391       .  A
C879        H882   1.080       .  S
C880        C894   1.488       .  S
N883        C887   1.357       .  A
N883        C884   1.368       .  A
N883        N890   1.413       .  S
C884        C885   1.375       .  A
C884        C966   1.487       .  S
C885        C886   1.368       .  A
C885        H888   1.082       .  S
C886        C887   1.391       .  A
C886        H889   1.080       .  S
N890        C894   1.355       .  A
N890        C891   1.354       .  A
C891        C892   1.375       .  A
C891        C979   1.472       .  S
C892        C893   1.373       .  A
C892        H895   1.080       .  S
C893        C894   1.394       .  A
C893        H896   1.082       .  S
N897        C898   1.354       .  A
N897       N1576   1.413   1_556  S
C898        C899   1.375       .  A
C898        C980   1.472       .  S
C899        C900   1.373       .  A
C899        H902   1.080       .  S
C901       C1251   1.488       .  S
N904        C905   1.368       .  A
C905        C906   1.375       .  A
C905        C965   1.487   1_554  S
C906        H909   1.082       .  S
C907        C908   1.391       .  A
C907        H910   1.080       .  S
C908       C1258   1.488       .  S
N911        C915   1.357       .  A
N911        C912   1.368       .  A
N911       N1590   1.413       .  S
C912        C913   1.375       .  A
C912       C1006   1.487       .  S
C913        C914   1.368       .  A
C913        H916   1.082       .  S
C914        C915   1.391       .  A
C914       H1253   1.080       .  S
C915       C1237   1.488   1_545  S
H917       C1250   1.080       .  S
N918        C922   1.355   1_545  A
N918        C919   1.354       .  A
C919        C920   1.375       .  A
C919        C992   1.472       .  S
C920        C921   1.373   1_545  A
C920        H923   1.080       .  S
C921        C922   1.394       .  A
C921       H1260   1.082       .  S
C922       C1244   1.488       .  S
H924       C1257   1.082       .  S
N925        C926   1.368       .  A
N925       N1604   1.413   1_554  S
C926        C927   1.375       .  A
C926        C977   1.487   1_554  S
C927        C928   1.368       .  A
C927        H930   1.082       .  S
C929        C943   1.488       .  S
N932        C933   1.354       .  A
C933        C934   1.375       .  A
C933        C964   1.472       .  S
C934        C935   1.373       .  A
C934        H937   1.080       .  S
C936        C950   1.488       .  S
N939        C943   1.355       .  A
N939        C940   1.354       .  A
N939       N1618   1.413       .  S
C940        C941   1.375       .  A
C940       C1007   1.472       .  S
C941        C942   1.373       .  A
C941        H944   1.080       .  S
C942        C943   1.394       .  A
C942        H945   1.082       .  S
N946        C950   1.357       .  A
N946        C947   1.368       .  A
C947        C948   1.375       .  A
C947        C993   1.487       .  S
C948        C949   1.368       .  A
C948        H951   1.082       .  S
C949        C950   1.391       .  A
C949        H952   1.080       .  S
O953       Cu961   2.004       .  S
O953        C963   1.276       .  A
O954       Cu961   2.015       .  S
O954        C964   1.278       .  A
O955       Cu961   2.016       .  S
O955        C965   1.275       .  A
O956       Cu961   2.004       .  S
O956        C966   1.277       .  A
O957       Cu962   2.016       .  S
O957        C966   1.275       .  A
O958       Cu962   2.004       .  S
O958        C965   1.277       .  A
O959       Cu962   2.004       .  S
O959        C964   1.276       .  A
O960       Cu962   2.015       .  S
O960        C963   1.278       .  A
Cu961      Cu962   2.368       .  S
O967       Cu975   2.005       .  S
O967        C977   1.277       .  A
O968       Cu975   2.016       .  S
O968        C978   1.275       .  A
O969       Cu975   2.015       .  S
O969        C979   1.278       .  A
O970       Cu975   2.004       .  S
O970        C980   1.276       .  A
O971       Cu976   2.015       .  S
O971        C980   1.278       .  A
O972       Cu976   2.004       .  S
O972        C979   1.276       .  A
O973       Cu976   2.005       .  S
O973        C978   1.277       .  A
O974       Cu976   2.016       .  S
O974        C977   1.275       .  A
Cu975      Cu976   2.368       .  S
O981       Cu989   2.015       .  S
O981        C991   1.278       .  A
O982       Cu989   2.004       .  S
O982        C992   1.276       .  A
O983       Cu989   2.005       .  S
O983        C993   1.277       .  A
O984       Cu989   2.016       .  S
O984        C994   1.275       .  A
O985       Cu990   2.005       .  S
O985        C994   1.277       .  A
O986       Cu990   2.016       .  S
O986        C993   1.275       .  A
O987       Cu990   2.015       .  S
O987        C992   1.278       .  A
O988       Cu990   2.004       .  S
O988        C991   1.276       .  A
Cu989      Cu990   2.368       .  S
O995      Cu1003   2.004       .  S
O995       C1005   1.277       .  A
O996      Cu1003   2.016       .  S
O996       C1006   1.275       .  A
O997      Cu1003   2.015       .  S
O997       C1007   1.278       .  A
O998      Cu1003   2.004       .  S
O998       C1008   1.276       .  A
O999      Cu1004   2.015       .  S
O999       C1008   1.278       .  A
O1000     Cu1004   2.004       .  S
O1000      C1007   1.276       .  A
O1001     Cu1004   2.004       .  S
O1001      C1006   1.277       .  A
O1002     Cu1004   2.016       .  S
O1002      C1005   1.275       .  A
Cu1003    Cu1004   2.368       .  S
N1009      C1013   1.355       .  A
N1009      C1010   1.354       .  A
N1009      N1016   1.413       .  S
C1010      C1011   1.375       .  A
C1010      C1131   1.472       .  S
C1011      C1012   1.373       .  A
C1011      H1014   1.080       .  S
C1012      C1013   1.394       .  A
C1012      H1015   1.082   1_565  S
N1016      C1020   1.357       .  A
N1016      C1017   1.368       .  A
C1017      C1018   1.375       .  A
C1017      C1146   1.487       .  S
C1018      C1019   1.368       .  A
C1018      H1021   1.082       .  S
C1019      C1020   1.391       .  A
C1019      H1022   1.080       .  S
N1023      C1027   1.355       .  A
N1023      C1024   1.354       .  A
N1023      N1030   1.413       .  S
C1024      C1025   1.375       .  A
C1024      C1176   1.472       .  S
C1025      C1026   1.373       .  A
C1025      H1028   1.080       .  S
C1026      C1027   1.394       .  A
N1030      C1034   1.357       .  A
N1030      C1031   1.368       .  A
C1031      C1032   1.375       .  A
C1031      C1162   1.487       .  S
C1032      C1033   1.368       .  A
C1032      H1035   1.082       .  S
C1033      C1034   1.391       .  A
N1037      C1041   1.355       .  A
N1037      C1038   1.354       .  A
N1037      N1044   1.413       .  S
C1038      C1039   1.375       .  A
C1038      C1159   1.472       .  S
C1039      C1040   1.373       .  A
C1039      H1042   1.080       .  S
C1040      C1041   1.394       .  A
C1040      H1043   1.082       .  S
C1041      C1055   1.488       .  S
N1044      C1048   1.357       .  A
N1044      C1045   1.368       .  A
C1045      C1046   1.375       .  A
C1045      C1173   1.487       .  S
C1046      C1047   1.368       .  A
C1046      H1049   1.082       .  S
C1047      C1048   1.391       .  A
C1047      H1050   1.080       .  S
C1048      C1062   1.488       .  S
N1051      C1055   1.357       .  A
N1051      C1052   1.368       .  A
N1051      N1058   1.413       .  S
C1052      C1053   1.375       .  A
C1052      C1134   1.487       .  S
C1053      C1054   1.368       .  A
C1053      H1056   1.082       .  S
C1054      C1055   1.391       .  A
C1054      H1057   1.080       .  S
N1058      C1062   1.355       .  A
N1058      C1059   1.354       .  A
C1059      C1060   1.375       .  A
C1059      C1147   1.472       .  S
C1060      C1061   1.373       .  A
C1060      H1063   1.080       .  S
C1061      C1062   1.394       .  A
C1061      H1064   1.082       .  S
N1065      C1237   1.355       .  A
N1065      C1066   1.354       .  A
N1065      N1744   1.413       .  S
C1066      C1067   1.375       .  A
C1066      C1148   1.472       .  S
C1067      C1068   1.373       .  A
C1067      H1070   1.080       .  S
C1068      C1237   1.394       .  A
C1068      H1239   1.082   1_565  S
C1069      N1233   1.355       .  A
C1069      C1236   1.394       .  A
H1071      C1236   1.082   1_545  S
N1072      C1244   1.357       .  A
N1072      C1073   1.368       .  A
C1073      C1074   1.375       .  A
C1073      C1133   1.487       .  S
C1074      C1243   1.368       .  A
C1074      H1077   1.082       .  S
C1075      C1242   1.368       .  A
C1075      C1076   1.391       .  A
C1075      H1078   1.080       .  S
C1076      N1240   1.357       .  A
N1079      C1083   1.357   1_554  A
N1079      C1080   1.368       .  A
N1079      N1758   1.413       .  S
C1080      C1081   1.375   1_554  A
C1080      C1174   1.487       .  S
C1081      C1082   1.368       .  A
C1081      H1084   1.082       .  S
C1082      C1083   1.391       .  A
N1086      C1090   1.355       .  A
N1086      C1087   1.354       .  A
C1087      C1088   1.375       .  A
C1087      C1160   1.472       .  S
C1088      C1089   1.373       .  A
C1088      H1091   1.080       .  S
C1089      C1090   1.394       .  A
N1093      C1265   1.357       .  A
N1093      C1094   1.368       .  A
N1093      N1772   1.413       .  S
C1094      C1095   1.375       .  A
C1094      C1145   1.487       .  S
C1095      C1096   1.368       .  A
C1095      H1098   1.082       .  S
C1096      C1265   1.391       .  A
C1096      H1267   1.080       .  S
C1097      N1261   1.357       .  A
C1097      C1264   1.391       .  A
C1097      C1111   1.488       .  S
H1099      C1264   1.080       .  S
N1100      C1272   1.355       .  A
N1100      C1101   1.354       .  A
C1101      C1102   1.375       .  A
C1101      C1132   1.472       .  S
C1102      C1103   1.373       .  A
C1102      H1105   1.080       .  S
C1103      C1272   1.394       .  A
C1103      H1274   1.082       .  S
C1104      N1268   1.355       .  A
C1104      C1271   1.394       .  A
C1104      C1118   1.488       .  S
H1106      C1271   1.082       .  S
N1107      C1111   1.355       .  A
N1107      C1108   1.354       .  A
N1107      N1786   1.413       .  S
C1108      C1109   1.375       .  A
C1108      C1175   1.472       .  S
C1109      C1110   1.373       .  A
C1109      H1112   1.080       .  S
C1110      C1111   1.394       .  A
C1110      H1113   1.082       .  S
N1114      C1118   1.357   1_554  A
N1114      C1115   1.368       .  A
C1115      C1116   1.375   1_554  A
C1115      C1161   1.487       .  S
C1116      C1117   1.368       .  A
C1116      H1119   1.082       .  S
C1117      C1118   1.391       .  A
C1117      H1120   1.080       .  S
O1121     Cu1129   2.004       .  S
O1121      C1131   1.276       .  A
O1122     Cu1129   2.015       .  S
O1122      C1132   1.278       .  A
O1123     Cu1129   2.016       .  S
O1123      C1133   1.275       .  A
O1124     Cu1129   2.004       .  S
O1124      C1134   1.277       .  A
O1125     Cu1130   2.016       .  S
O1125      C1134   1.275       .  A
O1126     Cu1130   2.004       .  S
O1126      C1133   1.277       .  A
O1127     Cu1130   2.004       .  S
O1127      C1132   1.276       .  A
O1128     Cu1130   2.015       .  S
O1128      C1131   1.278       .  A
Cu1129    Cu1130   2.368       .  S
O1135     Cu1143   2.005       .  S
O1135      C1145   1.277       .  A
O1136     Cu1143   2.016       .  S
O1136      C1146   1.275       .  A
O1137     Cu1143   2.015       .  S
O1137      C1147   1.278       .  A
O1138     Cu1143   2.004       .  S
O1138      C1148   1.276       .  A
O1139     Cu1144   2.015       .  S
O1139      C1148   1.278       .  A
O1140     Cu1144   2.004       .  S
O1140      C1147   1.276       .  A
O1141     Cu1144   2.005       .  S
O1141      C1146   1.277       .  A
O1142     Cu1144   2.016       .  S
O1142      C1145   1.275       .  A
Cu1143    Cu1144   2.368       .  S
O1149     Cu1157   2.015       .  S
O1149      C1159   1.278       .  A
O1150     Cu1157   2.004       .  S
O1150      C1160   1.276       .  A
O1151     Cu1157   2.005       .  S
O1151      C1161   1.277       .  A
O1152     Cu1157   2.016       .  S
O1152      C1162   1.275       .  A
O1153     Cu1158   2.005       .  S
O1153      C1162   1.277       .  A
O1154     Cu1158   2.016       .  S
O1154      C1161   1.275       .  A
O1155     Cu1158   2.015       .  S
O1155      C1160   1.278       .  A
O1156     Cu1158   2.004       .  S
O1156      C1159   1.276       .  A
Cu1157    Cu1158   2.368       .  S
O1163     Cu1171   2.004       .  S
O1163      C1173   1.277       .  A
O1164     Cu1171   2.016       .  S
O1164      C1174   1.275       .  A
O1165     Cu1171   2.015       .  S
O1165      C1175   1.278       .  A
O1166     Cu1171   2.004       .  S
O1166      C1176   1.276       .  A
O1167     Cu1172   2.015       .  S
O1167      C1176   1.278       .  A
O1168     Cu1172   2.004       .  S
O1168      C1175   1.276       .  A
O1169     Cu1172   2.004       .  S
O1169      C1174   1.277       .  A
O1170     Cu1172   2.016       .  S
O1170      C1173   1.275       .  A
Cu1171    Cu1172   2.368       .  S
N1177      C1181   1.355       .  A
N1177      C1178   1.354       .  A
N1177      N1184   1.413       .  S
C1178      C1179   1.375       .  A
C1178      C1299   1.472       .  S
C1179      C1180   1.373       .  A
C1179      H1182   1.080       .  S
C1180      C1181   1.394       .  A
C1180      H1183   1.082   1_565  S
N1184      C1188   1.357       .  A
N1184      C1185   1.368       .  A
C1185      C1186   1.375       .  A
C1185      C1314   1.487       .  S
C1186      C1187   1.368       .  A
C1186      H1189   1.082       .  S
C1187      C1188   1.391       .  A
C1187      H1190   1.080       .  S
N1191      C1195   1.355       .  A
N1191      C1192   1.354       .  A
N1191      N1198   1.413       .  S
C1192      C1193   1.375       .  A
C1192      C1344   1.472       .  S
C1193      C1194   1.373       .  A
C1193      H1196   1.080       .  S
C1194      C1195   1.394       .  A
N1198      C1202   1.357       .  A
N1198      C1199   1.368       .  A
C1199      C1200   1.375       .  A
C1199      C1330   1.487       .  S
C1200      C1201   1.368       .  A
C1200      H1203   1.082       .  S
C1201      C1202   1.391       .  A
N1205      C1209   1.355       .  A
N1205      C1206   1.354       .  A
N1205      N1212   1.413       .  S
C1206      C1207   1.375       .  A
C1206      C1327   1.472       .  S
C1207      C1208   1.373       .  A
C1207      H1210   1.080       .  S
C1208      C1209   1.394       .  A
C1208      H1211   1.082       .  S
C1209      C1223   1.488       .  S
N1212      C1216   1.357       .  A
N1212      C1213   1.368       .  A
C1213      C1214   1.375       .  A
C1213      C1341   1.487       .  S
C1214      C1215   1.368       .  A
C1214      H1217   1.082       .  S
C1215      C1216   1.391       .  A
C1215      H1218   1.080       .  S
C1216      C1230   1.488       .  S
N1219      C1223   1.357       .  A
N1219      C1220   1.368       .  A
N1219      N1226   1.413       .  S
C1220      C1221   1.375       .  A
C1220      C1302   1.487       .  S
C1221      C1222   1.368       .  A
C1221      H1224   1.082       .  S
C1222      C1223   1.391       .  A
C1222      H1225   1.080       .  S
N1226      C1230   1.355       .  A
N1226      C1227   1.354       .  A
C1227      C1228   1.375       .  A
C1227      C1315   1.472       .  S
C1228      C1229   1.373       .  A
C1228      H1231   1.080       .  S
C1229      C1230   1.394       .  A
C1229      H1232   1.082       .  S
N1233      C1234   1.354       .  A
N1233      N1912   1.413   1_556  S
C1234      C1235   1.375       .  A
C1234      C1316   1.472       .  S
C1235      C1236   1.373       .  A
C1235      H1238   1.080       .  S
N1240      C1241   1.368       .  A
C1241      C1242   1.375       .  A
C1241      C1301   1.487   1_554  S
C1242      H1245   1.082       .  S
C1243      C1244   1.391       .  A
C1243      H1246   1.080       .  S
N1247      C1251   1.357       .  A
N1247      C1248   1.368       .  A
N1247      N1926   1.413       .  S
C1248      C1249   1.375       .  A
C1248      C1342   1.487       .  S
C1249      C1250   1.368       .  A
C1249      H1252   1.082       .  S
C1250      C1251   1.391       .  A
N1254      C1258   1.355       .  A
N1254      C1255   1.354       .  A
C1255      C1256   1.375       .  A
C1255      C1328   1.472       .  S
C1256      C1257   1.373       .  A
C1256      H1259   1.080       .  S
C1257      C1258   1.394       .  A
N1261      C1262   1.368       .  A
N1261      N1940   1.413   1_554  S
C1262      C1263   1.375       .  A
C1262      C1313   1.487   1_554  S
C1263      C1264   1.368       .  A
C1263      H1266   1.082       .  S
C1265      C1279   1.488       .  S
N1268      C1269   1.354       .  A
C1269      C1270   1.375       .  A
C1269      C1300   1.472       .  S
C1270      C1271   1.373       .  A
C1270      H1273   1.080       .  S
C1272      C1286   1.488       .  S
N1275      C1279   1.355       .  A
N1275      C1276   1.354       .  A
N1275      N1954   1.413       .  S
C1276      C1277   1.375       .  A
C1276      C1343   1.472       .  S
C1277      C1278   1.373       .  A
C1277      H1280   1.080       .  S
C1278      C1279   1.394       .  A
C1278      H1281   1.082       .  S
N1282      C1286   1.357       .  A
N1282      C1283   1.368       .  A
C1283      C1284   1.375       .  A
C1283      C1329   1.487       .  S
C1284      C1285   1.368       .  A
C1284      H1287   1.082       .  S
C1285      C1286   1.391       .  A
C1285      H1288   1.080       .  S
O1289     Cu1297   2.004       .  S
O1289      C1299   1.276       .  A
O1290     Cu1297   2.015       .  S
O1290      C1300   1.278       .  A
O1291     Cu1297   2.016       .  S
O1291      C1301   1.275       .  A
O1292     Cu1297   2.004       .  S
O1292      C1302   1.277       .  A
O1293     Cu1298   2.016       .  S
O1293      C1302   1.275       .  A
O1294     Cu1298   2.004       .  S
O1294      C1301   1.277       .  A
O1295     Cu1298   2.004       .  S
O1295      C1300   1.276       .  A
O1296     Cu1298   2.015       .  S
O1296      C1299   1.278       .  A
Cu1297    Cu1298   2.368       .  S
O1303     Cu1311   2.005       .  S
O1303      C1313   1.277       .  A
O1304     Cu1311   2.016       .  S
O1304      C1314   1.275       .  A
O1305     Cu1311   2.015       .  S
O1305      C1315   1.278       .  A
O1306     Cu1311   2.004       .  S
O1306      C1316   1.276       .  A
O1307     Cu1312   2.015       .  S
O1307      C1316   1.278       .  A
O1308     Cu1312   2.004       .  S
O1308      C1315   1.276       .  A
O1309     Cu1312   2.005       .  S
O1309      C1314   1.277       .  A
O1310     Cu1312   2.016       .  S
O1310      C1313   1.275       .  A
Cu1311    Cu1312   2.368       .  S
O1317     Cu1325   2.015       .  S
O1317      C1327   1.278       .  A
O1318     Cu1325   2.004       .  S
O1318      C1328   1.276       .  A
O1319     Cu1325   2.005       .  S
O1319      C1329   1.277       .  A
O1320     Cu1325   2.016       .  S
O1320      C1330   1.275       .  A
O1321     Cu1326   2.005       .  S
O1321      C1330   1.277       .  A
O1322     Cu1326   2.016       .  S
O1322      C1329   1.275       .  A
O1323     Cu1326   2.015       .  S
O1323      C1328   1.278       .  A
O1324     Cu1326   2.004       .  S
O1324      C1327   1.276       .  A
Cu1325    Cu1326   2.368       .  S
O1331     Cu1339   2.004       .  S
O1331      C1341   1.277       .  A
O1332     Cu1339   2.016       .  S
O1332      C1342   1.275       .  A
O1333     Cu1339   2.015       .  S
O1333      C1343   1.278       .  A
O1334     Cu1339   2.004       .  S
O1334      C1344   1.276       .  A
O1335     Cu1340   2.015       .  S
O1335      C1344   1.278       .  A
O1336     Cu1340   2.004       .  S
O1336      C1343   1.276       .  A
O1337     Cu1340   2.004       .  S
O1337      C1342   1.277       .  A
O1338     Cu1340   2.016       .  S
O1338      C1341   1.275       .  A
Cu1339    Cu1340   2.368       .  S
N1345      C1349   1.355       .  A
N1345      C1346   1.354       .  A
N1345      N1352   1.413       .  S
C1346      C1347   1.375       .  A
C1346      C1467   1.472       .  S
C1347      C1348   1.373       .  A
C1347      H1350   1.080       .  S
C1348      C1349   1.394       .  A
C1348      H1351   1.082       .  S
C1349      C1706   1.488       .  S
N1352      C1356   1.357       .  A
N1352      C1353   1.368       .  A
C1353      C1354   1.375       .  A
C1353      C1482   1.487       .  S
C1354      C1355   1.368       .  A
C1354      H1357   1.082       .  S
C1355      C1356   1.391       .  A
C1355      H1358   1.080       .  S
C1356      C1699   1.488       .  S
N1359      C1363   1.355   1_545  A
N1359      C1360   1.354       .  A
N1359      N1366   1.413       .  S
C1360      C1361   1.375       .  A
C1360      C1512   1.472       .  S
C1361      C1362   1.373   1_545  A
C1361      H1364   1.080       .  S
C1362      C1363   1.394       .  A
C1362      H1701   1.082       .  S
C1363      C1692   1.488       .  S
H1365      C1698   1.082       .  S
N1366      C1370   1.357       .  A
N1366      C1367   1.368       .  A
C1367      C1368   1.375       .  A
C1367      C1498   1.487       .  S
C1368      C1369   1.368       .  A
C1368      H1371   1.082       .  S
C1369      C1370   1.391       .  A
C1369      H1708   1.080       .  S
C1370      C1685   1.488   1_545  S
H1372      C1705   1.080       .  S
N1373      C1377   1.355       .  A
N1373      C1374   1.354       .  A
N1373      N1380   1.413       .  S
C1374      C1375   1.375       .  A
C1374      C1495   1.472       .  S
C1375      C1376   1.373       .  A
C1375      H1378   1.080       .  S
C1376      C1377   1.394       .  A
C1376      H1379   1.082       .  S
C1377      C1391   1.488       .  S
N1380      C1384   1.357       .  A
N1380      C1381   1.368       .  A
C1381      C1382   1.375       .  A
C1381      C1509   1.487       .  S
C1382      C1383   1.368       .  A
C1382      H1385   1.082       .  S
C1383      C1384   1.391       .  A
C1383      H1386   1.080       .  S
C1384      C1398   1.488       .  S
N1387      C1391   1.357       .  A
N1387      C1388   1.368       .  A
N1387      N1394   1.413       .  S
C1388      C1389   1.375       .  A
C1388      C1470   1.487       .  S
C1389      C1390   1.368       .  A
C1389      H1392   1.082       .  S
C1390      C1391   1.391       .  A
C1390      H1393   1.080       .  S
N1394      C1398   1.355       .  A
N1394      C1395   1.354       .  A
C1395      C1396   1.375       .  A
C1395      C1483   1.472       .  S
C1396      C1397   1.373       .  A
C1396      H1399   1.080       .  S
C1397      C1398   1.394       .  A
C1397      H1400   1.082       .  S
N1401      C1573   1.355   1_655  A
N1401      C1402   1.354       .  A
C1402      C1403   1.375   1_655  A
C1402      C1484   1.472       .  S
C1403      C1404   1.373       .  A
C1403      H1406   1.080       .  S
C1404      C1573   1.394       .  A
C1404      H1575   1.082       .  S
C1405      N1569   1.355   1_455  A
C1405      C1572   1.394       .  A
C1405      C1755   1.488       .  S
H1407      C1572   1.082       .  S
N1408      C1580   1.357       .  A
N1408      C1409   1.368       .  A
C1409      C1410   1.375       .  A
C1409      C1469   1.487       .  S
C1410      C1579   1.368       .  A
C1410      H1413   1.082       .  S
C1411      C1578   1.368       .  A
C1411      C1412   1.391       .  A
C1411      H1414   1.080       .  S
C1412      N1576   1.357       .  A
C1412      C1762   1.488       .  S
N1415      C1419   1.357   1_654  A
N1415      C1416   1.368       .  A
C1416      C1417   1.375   1_554  A
C1416      C1510   1.487       .  S
C1417      C1418   1.368   1_655  A
C1417      H1420   1.082       .  S
C1418      C1419   1.391       .  A
C1418      H1757   1.080       .  S
C1419      C1741   1.488   1_545  S
H1421      C1754   1.080       .  S
N1422      C1426   1.355   1_545  A
N1422      C1423   1.354       .  A
C1423      C1424   1.375       .  A
C1423      C1496   1.472       .  S
C1424      C1425   1.373   1_545  A
C1424      H1427   1.080       .  S
C1425      C1426   1.394       .  A
C1425      H1764   1.082       .  S
C1426      C1748   1.488       .  S
H1428      C1761   1.082       .  S
N1429      C1601   1.357   1_655  A
N1429      C1430   1.368       .  A
C1430      C1431   1.375       .  A
C1430      C1481   1.487       .  S
C1431      C1432   1.368   1_655  A
C1431      H1434   1.082       .  S
C1432      C1601   1.391       .  A
C1432      H1603   1.080       .  S
C1433      N1597   1.357   1_455  A
C1433      C1600   1.391       .  A
C1433      C1447   1.488       .  S
H1435      C1600   1.080       .  S
N1436      C1608   1.355       .  A
N1436      C1437   1.354       .  A
C1437      C1438   1.375       .  A
C1437      C1468   1.472       .  S
C1438      C1439   1.373       .  A
C1438      H1441   1.080       .  S
C1439      C1608   1.394       .  A
C1439      H1610   1.082       .  S
C1440      N1604   1.355       .  A
C1440      C1607   1.394       .  A
C1440      C1454   1.488       .  S
H1442      C1607   1.082       .  S
N1443      C1447   1.355   1_655  A
N1443      C1444   1.354       .  A
C1444      C1445   1.375   1_655  A
C1444      C1511   1.472       .  S
C1445      C1446   1.373       .  A
C1445      H1448   1.080       .  S
C1446      C1447   1.394       .  A
C1446      H1449   1.082       .  S
N1450      C1454   1.357   1_554  A
N1450      C1451   1.368       .  A
C1451      C1452   1.375   1_554  A
C1451      C1497   1.487       .  S
C1452      C1453   1.368       .  A
C1452      H1455   1.082       .  S
C1453      C1454   1.391       .  A
C1453      H1456   1.080       .  S
O1457     Cu1465   2.004       .  S
O1457      C1467   1.276       .  A
O1458     Cu1465   2.015       .  S
O1458      C1468   1.278       .  A
O1459     Cu1465   2.016       .  S
O1459      C1469   1.275       .  A
O1460     Cu1465   2.004       .  S
O1460      C1470   1.277       .  A
O1461     Cu1466   2.016       .  S
O1461      C1470   1.275       .  A
O1462     Cu1466   2.004       .  S
O1462      C1469   1.277       .  A
O1463     Cu1466   2.004       .  S
O1463      C1468   1.276       .  A
O1464     Cu1466   2.015       .  S
O1464      C1467   1.278       .  A
Cu1465    Cu1466   2.368       .  S
O1471     Cu1479   2.005       .  S
O1471      C1481   1.277       .  A
O1472     Cu1479   2.016       .  S
O1472      C1482   1.275       .  A
O1473     Cu1479   2.015       .  S
O1473      C1483   1.278       .  A
O1474     Cu1479   2.004       .  S
O1474      C1484   1.276       .  A
O1475     Cu1480   2.015       .  S
O1475      C1484   1.278       .  A
O1476     Cu1480   2.004       .  S
O1476      C1483   1.276       .  A
O1477     Cu1480   2.005       .  S
O1477      C1482   1.277       .  A
O1478     Cu1480   2.016       .  S
O1478      C1481   1.275       .  A
Cu1479    Cu1480   2.368       .  S
O1485     Cu1493   2.015       .  S
O1485      C1495   1.278       .  A
O1486     Cu1493   2.004       .  S
O1486      C1496   1.276       .  A
O1487     Cu1493   2.005       .  S
O1487      C1497   1.277       .  A
O1488     Cu1493   2.016       .  S
O1488      C1498   1.275       .  A
O1489     Cu1494   2.005       .  S
O1489      C1498   1.277       .  A
O1490     Cu1494   2.016       .  S
O1490      C1497   1.275       .  A
O1491     Cu1494   2.015       .  S
O1491      C1496   1.278       .  A
O1492     Cu1494   2.004       .  S
O1492      C1495   1.276       .  A
Cu1493    Cu1494   2.368       .  S
O1499     Cu1507   2.004       .  S
O1499      C1509   1.277       .  A
O1500     Cu1507   2.016       .  S
O1500      C1510   1.275       .  A
O1501     Cu1507   2.015       .  S
O1501      C1511   1.278       .  A
O1502     Cu1507   2.004       .  S
O1502      C1512   1.276       .  A
O1503     Cu1508   2.015       .  S
O1503      C1512   1.278       .  A
O1504     Cu1508   2.004       .  S
O1504      C1511   1.276       .  A
O1505     Cu1508   2.004       .  S
O1505      C1510   1.277       .  A
O1506     Cu1508   2.016       .  S
O1506      C1509   1.275       .  A
Cu1507    Cu1508   2.368       .  S
N1513      C1517   1.355       .  A
N1513      C1514   1.354       .  A
N1513      N1520   1.413       .  S
C1514      C1515   1.375       .  A
C1514      C1635   1.472       .  S
C1515      C1516   1.373       .  A
C1515      H1518   1.080       .  S
C1516      C1517   1.394       .  A
C1516      H1519   1.082       .  S
C1517      C1874   1.488       .  S
N1520      C1524   1.357       .  A
N1520      C1521   1.368       .  A
C1521      C1522   1.375       .  A
C1521      C1650   1.487       .  S
C1522      C1523   1.368       .  A
C1522      H1525   1.082       .  S
C1523      C1524   1.391       .  A
C1523      H1526   1.080       .  S
C1524      C1867   1.488       .  S
N1527      C1531   1.355   1_545  A
N1527      C1528   1.354       .  A
N1527      N1534   1.413       .  S
C1528      C1529   1.375       .  A
C1528      C1680   1.472       .  S
C1529      C1530   1.373   1_545  A
C1529      H1532   1.080       .  S
C1530      C1531   1.394       .  A
C1530      H1869   1.082       .  S
C1531      C1860   1.488       .  S
H1533      C1866   1.082       .  S
N1534      C1538   1.357       .  A
N1534      C1535   1.368       .  A
C1535      C1536   1.375       .  A
C1535      C1666   1.487       .  S
C1536      C1537   1.368       .  A
C1536      H1539   1.082       .  S
C1537      C1538   1.391       .  A
C1537      H1876   1.080       .  S
C1538      C1853   1.488   1_545  S
H1540      C1873   1.080       .  S
N1541      C1545   1.355       .  A
N1541      C1542   1.354       .  A
N1541      N1548   1.413       .  S
C1542      C1543   1.375       .  A
C1542      C1663   1.472       .  S
C1543      C1544   1.373       .  A
C1543      H1546   1.080       .  S
C1544      C1545   1.394       .  A
C1544      H1547   1.082       .  S
C1545      C1559   1.488       .  S
N1548      C1552   1.357       .  A
N1548      C1549   1.368       .  A
C1549      C1550   1.375       .  A
C1549      C1677   1.487       .  S
C1550      C1551   1.368       .  A
C1550      H1553   1.082       .  S
C1551      C1552   1.391       .  A
C1551      H1554   1.080       .  S
C1552      C1566   1.488       .  S
N1555      C1559   1.357       .  A
N1555      C1556   1.368       .  A
N1555      N1562   1.413       .  S
C1556      C1557   1.375       .  A
C1556      C1638   1.487       .  S
C1557      C1558   1.368       .  A
C1557      H1560   1.082       .  S
C1558      C1559   1.391       .  A
C1558      H1561   1.080       .  S
N1562      C1566   1.355       .  A
N1562      C1563   1.354       .  A
C1563      C1564   1.375       .  A
C1563      C1651   1.472       .  S
C1564      C1565   1.373       .  A
C1564      H1567   1.080       .  S
C1565      C1566   1.394       .  A
C1565      H1568   1.082       .  S
N1569      C1570   1.354       .  A
C1570      C1571   1.375   1_655  A
C1570      C1652   1.472       .  S
C1571      C1572   1.373       .  A
C1571      H1574   1.080       .  S
C1573      C1923   1.488       .  S
N1576      C1577   1.368       .  A
C1577      C1578   1.375       .  A
C1577      C1637   1.487   1_554  S
C1578      H1581   1.082       .  S
C1579      C1580   1.391       .  A
C1579      H1582   1.080       .  S
C1580      C1930   1.488       .  S
N1583      C1587   1.357   1_655  A
N1583      C1584   1.368       .  A
C1584      C1585   1.375       .  A
C1584      C1678   1.487       .  S
C1585      C1586   1.368   1_655  A
C1585      H1588   1.082       .  S
C1586      C1587   1.391       .  A
C1586      H1925   1.080       .  S
C1587      C1909   1.488   1_545  S
H1589      C1922   1.080       .  S
N1590      C1594   1.355   1_545  A
N1590      C1591   1.354       .  A
C1591      C1592   1.375       .  A
C1591      C1664   1.472       .  S
C1592      C1593   1.373   1_545  A
C1592      H1595   1.080       .  S
C1593      C1594   1.394       .  A
C1593      H1932   1.082       .  S
C1594      C1916   1.488       .  S
H1596      C1929   1.082       .  S
N1597      C1598   1.368       .  A
C1598      C1599   1.375       .  A
C1598      C1649   1.487   1_554  S
C1599      C1600   1.368   1_655  A
C1599      H1602   1.082       .  S
C1601      C1615   1.488       .  S
N1604      C1605   1.354       .  A
C1605      C1606   1.375       .  A
C1605      C1636   1.472       .  S
C1606      C1607   1.373       .  A
C1606      H1609   1.080       .  S
C1608      C1622   1.488       .  S
N1611      C1615   1.355   1_655  A
N1611      C1612   1.354       .  A
C1612      C1613   1.375   1_655  A
C1612      C1679   1.472       .  S
C1613      C1614   1.373       .  A
C1613      H1616   1.080       .  S
C1614      C1615   1.394       .  A
C1614      H1617   1.082       .  S
N1618      C1622   1.357       .  A
N1618      C1619   1.368       .  A
C1619      C1620   1.375       .  A
C1619      C1665   1.487       .  S
C1620      C1621   1.368       .  A
C1620      H1623   1.082       .  S
C1621      C1622   1.391       .  A
C1621      H1624   1.080       .  S
O1625     Cu1633   2.004       .  S
O1625      C1635   1.276       .  A
O1626     Cu1633   2.015       .  S
O1626      C1636   1.278       .  A
O1627     Cu1633   2.016       .  S
O1627      C1637   1.275       .  A
O1628     Cu1633   2.004       .  S
O1628      C1638   1.277       .  A
O1629     Cu1634   2.016       .  S
O1629      C1638   1.275       .  A
O1630     Cu1634   2.004       .  S
O1630      C1637   1.277       .  A
O1631     Cu1634   2.004       .  S
O1631      C1636   1.276       .  A
O1632     Cu1634   2.015       .  S
O1632      C1635   1.278       .  A
Cu1633    Cu1634   2.368       .  S
O1639     Cu1647   2.005       .  S
O1639      C1649   1.277       .  A
O1640     Cu1647   2.016       .  S
O1640      C1650   1.275       .  A
O1641     Cu1647   2.015       .  S
O1641      C1651   1.278       .  A
O1642     Cu1647   2.004       .  S
O1642      C1652   1.276       .  A
O1643     Cu1648   2.015       .  S
O1643      C1652   1.278       .  A
O1644     Cu1648   2.004       .  S
O1644      C1651   1.276       .  A
O1645     Cu1648   2.005       .  S
O1645      C1650   1.277       .  A
O1646     Cu1648   2.016       .  S
O1646      C1649   1.275       .  A
Cu1647    Cu1648   2.368       .  S
O1653     Cu1661   2.015       .  S
O1653      C1663   1.278       .  A
O1654     Cu1661   2.004       .  S
O1654      C1664   1.276       .  A
O1655     Cu1661   2.005       .  S
O1655      C1665   1.277       .  A
O1656     Cu1661   2.016       .  S
O1656      C1666   1.275       .  A
O1657     Cu1662   2.005       .  S
O1657      C1666   1.277       .  A
O1658     Cu1662   2.016       .  S
O1658      C1665   1.275       .  A
O1659     Cu1662   2.015       .  S
O1659      C1664   1.278       .  A
O1660     Cu1662   2.004       .  S
O1660      C1663   1.276       .  A
Cu1661    Cu1662   2.368       .  S
O1667     Cu1675   2.004       .  S
O1667      C1677   1.277       .  A
O1668     Cu1675   2.016       .  S
O1668      C1678   1.275       .  A
O1669     Cu1675   2.015       .  S
O1669      C1679   1.278       .  A
O1670     Cu1675   2.004       .  S
O1670      C1680   1.276       .  A
O1671     Cu1676   2.015       .  S
O1671      C1680   1.278       .  A
O1672     Cu1676   2.004       .  S
O1672      C1679   1.276       .  A
O1673     Cu1676   2.004       .  S
O1673      C1678   1.277       .  A
O1674     Cu1676   2.016       .  S
O1674      C1677   1.275       .  A
Cu1675    Cu1676   2.368       .  S
N1681      C1685   1.355       .  A
N1681      C1682   1.354       .  A
N1681      N1688   1.413       .  S
C1682      C1683   1.375       .  A
C1682      C1803   1.472       .  S
C1683      C1684   1.373       .  A
C1683      H1686   1.080       .  S
C1684      C1685   1.394       .  A
C1684      H1687   1.082   1_565  S
N1688      C1692   1.357       .  A
N1688      C1689   1.368       .  A
C1689      C1690   1.375       .  A
C1689      C1818   1.487       .  S
C1690      C1691   1.368       .  A
C1690      H1693   1.082       .  S
C1691      C1692   1.391       .  A
C1691      H1694   1.080       .  S
N1695      C1699   1.355       .  A
N1695      C1696   1.354       .  A
N1695      N1702   1.413       .  S
C1696      C1697   1.375       .  A
C1696      C1848   1.472       .  S
C1697      C1698   1.373       .  A
C1697      H1700   1.080       .  S
C1698      C1699   1.394       .  A
N1702      C1706   1.357       .  A
N1702      C1703   1.368       .  A
C1703      C1704   1.375       .  A
C1703      C1834   1.487       .  S
C1704      C1705   1.368       .  A
C1704      H1707   1.082       .  S
C1705      C1706   1.391       .  A
N1709      C1713   1.355       .  A
N1709      C1710   1.354       .  A
N1709      N1716   1.413       .  S
C1710      C1711   1.375       .  A
C1710      C1831   1.472       .  S
C1711      C1712   1.373       .  A
C1711      H1714   1.080       .  S
C1712      C1713   1.394       .  A
C1712      H1715   1.082       .  S
C1713      C1727   1.488       .  S
N1716      C1720   1.357       .  A
N1716      C1717   1.368       .  A
C1717      C1718   1.375       .  A
C1717      C1845   1.487       .  S
C1718      C1719   1.368       .  A
C1718      H1721   1.082       .  S
C1719      C1720   1.391       .  A
C1719      H1722   1.080       .  S
C1720      C1734   1.488       .  S
N1723      C1727   1.357       .  A
N1723      C1724   1.368       .  A
N1723      N1730   1.413       .  S
C1724      C1725   1.375       .  A
C1724      C1806   1.487       .  S
C1725      C1726   1.368       .  A
C1725      H1728   1.082       .  S
C1726      C1727   1.391       .  A
C1726      H1729   1.080       .  S
N1730      C1734   1.355       .  A
N1730      C1731   1.354       .  A
C1731      C1732   1.375       .  A
C1731      C1819   1.472       .  S
C1732      C1733   1.373       .  A
C1732      H1735   1.080       .  S
C1733      C1734   1.394       .  A
C1733      H1736   1.082       .  S
N1737      C1909   1.355   1_655  A
N1737      C1738   1.354       .  A
C1738      C1739   1.375   1_655  A
C1738      C1820   1.472       .  S
C1739      C1740   1.373       .  A
C1739      H1742   1.080       .  S
C1740      C1909   1.394       .  A
C1740      H1911   1.082   1_565  S
C1741      N1905   1.355   1_455  A
C1741      C1908   1.394       .  A
H1743      C1908   1.082   1_545  S
N1744      C1916   1.357       .  A
N1744      C1745   1.368       .  A
C1745      C1746   1.375       .  A
C1745      C1805   1.487       .  S
C1746      C1915   1.368       .  A
C1746      H1749   1.082       .  S
C1747      C1914   1.368       .  A
C1747      C1748   1.391       .  A
C1747      H1750   1.080       .  S
C1748      N1912   1.357       .  A
N1751      C1755   1.357   1_654  A
N1751      C1752   1.368       .  A
C1752      C1753   1.375   1_554  A
C1752      C1846   1.487       .  S
C1753      C1754   1.368   1_655  A
C1753      H1756   1.082       .  S
C1754      C1755   1.391       .  A
N1758      C1762   1.355       .  A
N1758      C1759   1.354       .  A
C1759      C1760   1.375       .  A
C1759      C1832   1.472       .  S
C1760      C1761   1.373       .  A
C1760      H1763   1.080       .  S
C1761      C1762   1.394       .  A
N1765      C1937   1.357   1_655  A
N1765      C1766   1.368       .  A
C1766      C1767   1.375       .  A
C1766      C1817   1.487       .  S
C1767      C1768   1.368   1_655  A
C1767      H1770   1.082       .  S
C1768      C1937   1.391       .  A
C1768      H1939   1.080       .  S
C1769      N1933   1.357   1_455  A
C1769      C1936   1.391       .  A
C1769      C1783   1.488       .  S
H1771      C1936   1.080       .  S
N1772      C1944   1.355       .  A
N1772      C1773   1.354       .  A
C1773      C1774   1.375       .  A
C1773      C1804   1.472       .  S
C1774      C1775   1.373       .  A
C1774      H1777   1.080       .  S
C1775      C1944   1.394       .  A
C1775      H1946   1.082       .  S
C1776      N1940   1.355       .  A
C1776      C1943   1.394       .  A
C1776      C1790   1.488       .  S
H1778      C1943   1.082       .  S
N1779      C1783   1.355   1_655  A
N1779      C1780   1.354       .  A
C1780      C1781   1.375   1_655  A
C1780      C1847   1.472       .  S
C1781      C1782   1.373       .  A
C1781      H1784   1.080       .  S
C1782      C1783   1.394       .  A
C1782      H1785   1.082       .  S
N1786      C1790   1.357   1_554  A
N1786      C1787   1.368       .  A
C1787      C1788   1.375   1_554  A
C1787      C1833   1.487       .  S
C1788      C1789   1.368       .  A
C1788      H1791   1.082       .  S
C1789      C1790   1.391       .  A
C1789      H1792   1.080       .  S
O1793     Cu1801   2.004       .  S
O1793      C1803   1.276       .  A
O1794     Cu1801   2.015       .  S
O1794      C1804   1.278       .  A
O1795     Cu1801   2.016       .  S
O1795      C1805   1.275       .  A
O1796     Cu1801   2.004       .  S
O1796      C1806   1.277       .  A
O1797     Cu1802   2.016       .  S
O1797      C1806   1.275       .  A
O1798     Cu1802   2.004       .  S
O1798      C1805   1.277       .  A
O1799     Cu1802   2.004       .  S
O1799      C1804   1.276       .  A
O1800     Cu1802   2.015       .  S
O1800      C1803   1.278       .  A
Cu1801    Cu1802   2.368       .  S
O1807     Cu1815   2.005       .  S
O1807      C1817   1.277       .  A
O1808     Cu1815   2.016       .  S
O1808      C1818   1.275       .  A
O1809     Cu1815   2.015       .  S
O1809      C1819   1.278       .  A
O1810     Cu1815   2.004       .  S
O1810      C1820   1.276       .  A
O1811     Cu1816   2.015       .  S
O1811      C1820   1.278       .  A
O1812     Cu1816   2.004       .  S
O1812      C1819   1.276       .  A
O1813     Cu1816   2.005       .  S
O1813      C1818   1.277       .  A
O1814     Cu1816   2.016       .  S
O1814      C1817   1.275       .  A
Cu1815    Cu1816   2.368       .  S
O1821     Cu1829   2.015       .  S
O1821      C1831   1.278       .  A
O1822     Cu1829   2.004       .  S
O1822      C1832   1.276       .  A
O1823     Cu1829   2.005       .  S
O1823      C1833   1.277       .  A
O1824     Cu1829   2.016       .  S
O1824      C1834   1.275       .  A
O1825     Cu1830   2.005       .  S
O1825      C1834   1.277       .  A
O1826     Cu1830   2.016       .  S
O1826      C1833   1.275       .  A
O1827     Cu1830   2.015       .  S
O1827      C1832   1.278       .  A
O1828     Cu1830   2.004       .  S
O1828      C1831   1.276       .  A
Cu1829    Cu1830   2.368       .  S
O1835     Cu1843   2.004       .  S
O1835      C1845   1.277       .  A
O1836     Cu1843   2.016       .  S
O1836      C1846   1.275       .  A
O1837     Cu1843   2.015       .  S
O1837      C1847   1.278       .  A
O1838     Cu1843   2.004       .  S
O1838      C1848   1.276       .  A
O1839     Cu1844   2.015       .  S
O1839      C1848   1.278       .  A
O1840     Cu1844   2.004       .  S
O1840      C1847   1.276       .  A
O1841     Cu1844   2.004       .  S
O1841      C1846   1.277       .  A
O1842     Cu1844   2.016       .  S
O1842      C1845   1.275       .  A
Cu1843    Cu1844   2.368       .  S
N1849      C1853   1.355       .  A
N1849      C1850   1.354       .  A
N1849      N1856   1.413       .  S
C1850      C1851   1.375       .  A
C1850      C1971   1.472       .  S
C1851      C1852   1.373       .  A
C1851      H1854   1.080       .  S
C1852      C1853   1.394       .  A
C1852      H1855   1.082   1_565  S
N1856      C1860   1.357       .  A
N1856      C1857   1.368       .  A
C1857      C1858   1.375       .  A
C1857      C1986   1.487       .  S
C1858      C1859   1.368       .  A
C1858      H1861   1.082       .  S
C1859      C1860   1.391       .  A
C1859      H1862   1.080       .  S
N1863      C1867   1.355       .  A
N1863      C1864   1.354       .  A
N1863      N1870   1.413       .  S
C1864      C1865   1.375       .  A
C1864      C2016   1.472       .  S
C1865      C1866   1.373       .  A
C1865      H1868   1.080       .  S
C1866      C1867   1.394       .  A
N1870      C1874   1.357       .  A
N1870      C1871   1.368       .  A
C1871      C1872   1.375       .  A
C1871      C2002   1.487       .  S
C1872      C1873   1.368       .  A
C1872      H1875   1.082       .  S
C1873      C1874   1.391       .  A
N1877      C1881   1.355       .  A
N1877      C1878   1.354       .  A
N1877      N1884   1.413       .  S
C1878      C1879   1.375       .  A
C1878      C1999   1.472       .  S
C1879      C1880   1.373       .  A
C1879      H1882   1.080       .  S
C1880      C1881   1.394       .  A
C1880      H1883   1.082       .  S
C1881      C1895   1.488       .  S
N1884      C1888   1.357       .  A
N1884      C1885   1.368       .  A
C1885      C1886   1.375       .  A
C1885      C2013   1.487       .  S
C1886      C1887   1.368       .  A
C1886      H1889   1.082       .  S
C1887      C1888   1.391       .  A
C1887      H1890   1.080       .  S
C1888      C1902   1.488       .  S
N1891      C1895   1.357       .  A
N1891      C1892   1.368       .  A
N1891      N1898   1.413       .  S
C1892      C1893   1.375       .  A
C1892      C1974   1.487       .  S
C1893      C1894   1.368       .  A
C1893      H1896   1.082       .  S
C1894      C1895   1.391       .  A
C1894      H1897   1.080       .  S
N1898      C1902   1.355       .  A
N1898      C1899   1.354       .  A
C1899      C1900   1.375       .  A
C1899      C1987   1.472       .  S
C1900      C1901   1.373       .  A
C1900      H1903   1.080       .  S
C1901      C1902   1.394       .  A
C1901      H1904   1.082       .  S
N1905      C1906   1.354       .  A
C1906      C1907   1.375   1_655  A
C1906      C1988   1.472       .  S
C1907      C1908   1.373       .  A
C1907      H1910   1.080       .  S
N1912      C1913   1.368       .  A
C1913      C1914   1.375       .  A
C1913      C1973   1.487   1_554  S
C1914      H1917   1.082       .  S
C1915      C1916   1.391       .  A
C1915      H1918   1.080       .  S
N1919      C1923   1.357   1_655  A
N1919      C1920   1.368       .  A
C1920      C1921   1.375       .  A
C1920      C2014   1.487       .  S
C1921      C1922   1.368   1_655  A
C1921      H1924   1.082       .  S
C1922      C1923   1.391       .  A
N1926      C1930   1.355       .  A
N1926      C1927   1.354       .  A
C1927      C1928   1.375       .  A
C1927      C2000   1.472       .  S
C1928      C1929   1.373       .  A
C1928      H1931   1.080       .  S
C1929      C1930   1.394       .  A
N1933      C1934   1.368       .  A
C1934      C1935   1.375       .  A
C1934      C1985   1.487   1_554  S
C1935      C1936   1.368   1_655  A
C1935      H1938   1.082       .  S
C1937      C1951   1.488       .  S
N1940      C1941   1.354       .  A
C1941      C1942   1.375       .  A
C1941      C1972   1.472       .  S
C1942      C1943   1.373       .  A
C1942      H1945   1.080       .  S
C1944      C1958   1.488       .  S
N1947      C1951   1.355   1_655  A
N1947      C1948   1.354       .  A
C1948      C1949   1.375   1_655  A
C1948      C2015   1.472       .  S
C1949      C1950   1.373       .  A
C1949      H1952   1.080       .  S
C1950      C1951   1.394       .  A
C1950      H1953   1.082       .  S
N1954      C1958   1.357       .  A
N1954      C1955   1.368       .  A
C1955      C1956   1.375       .  A
C1955      C2001   1.487       .  S
C1956      C1957   1.368       .  A
C1956      H1959   1.082       .  S
C1957      C1958   1.391       .  A
C1957      H1960   1.080       .  S
O1961     Cu1969   2.004       .  S
O1961      C1971   1.276       .  A
O1962     Cu1969   2.015       .  S
O1962      C1972   1.278       .  A
O1963     Cu1969   2.016       .  S
O1963      C1973   1.275       .  A
O1964     Cu1969   2.004       .  S
O1964      C1974   1.277       .  A
O1965     Cu1970   2.016       .  S
O1965      C1974   1.275       .  A
O1966     Cu1970   2.004       .  S
O1966      C1973   1.277       .  A
O1967     Cu1970   2.004       .  S
O1967      C1972   1.276       .  A
O1968     Cu1970   2.015       .  S
O1968      C1971   1.278       .  A
Cu1969    Cu1970   2.368       .  S
O1975     Cu1983   2.005       .  S
O1975      C1985   1.277       .  A
O1976     Cu1983   2.016       .  S
O1976      C1986   1.275       .  A
O1977     Cu1983   2.015       .  S
O1977      C1987   1.278       .  A
O1978     Cu1983   2.004       .  S
O1978      C1988   1.276       .  A
O1979     Cu1984   2.015       .  S
O1979      C1988   1.278       .  A
O1980     Cu1984   2.004       .  S
O1980      C1987   1.276       .  A
O1981     Cu1984   2.005       .  S
O1981      C1986   1.277       .  A
O1982     Cu1984   2.016       .  S
O1982      C1985   1.275       .  A
Cu1983    Cu1984   2.368       .  S
O1989     Cu1997   2.015       .  S
O1989      C1999   1.278       .  A
O1990     Cu1997   2.004       .  S
O1990      C2000   1.276       .  A
O1991     Cu1997   2.005       .  S
O1991      C2001   1.277       .  A
O1992     Cu1997   2.016       .  S
O1992      C2002   1.275       .  A
O1993     Cu1998   2.005       .  S
O1993      C2002   1.277       .  A
O1994     Cu1998   2.016       .  S
O1994      C2001   1.275       .  A
O1995     Cu1998   2.015       .  S
O1995      C2000   1.278       .  A
O1996     Cu1998   2.004       .  S
O1996      C1999   1.276       .  A
Cu1997    Cu1998   2.368       .  S
O2003     Cu2011   2.004       .  S
O2003      C2013   1.277       .  A
O2004     Cu2011   2.016       .  S
O2004      C2014   1.275       .  A
O2005     Cu2011   2.015       .  S
O2005      C2015   1.278       .  A
O2006     Cu2011   2.004       .  S
O2006      C2016   1.276       .  A
O2007     Cu2012   2.015       .  S
O2007      C2016   1.278       .  A
O2008     Cu2012   2.004       .  S
O2008      C2015   1.276       .  A
O2009     Cu2012   2.004       .  S
O2009      C2014   1.277       .  A
O2010     Cu2012   2.016       .  S
O2010      C2013   1.275       .  A
Cu2011    Cu2012   2.368       .  S
