geometry optimzed in LAMMPS
_audit_creation_date              2020-11-30 
_audit_creation_method            'lammps2cif' 
_symmetry_space_group_name_H-M    'P1' 
_symmetry_Int_Tables_number       1 
_symmetry_cell_setting            triclinic 
loop_ 
_symmetry_equiv_pos_as_xyz 
  x,y,z 
_cell_length_a                    41.86418246 
_cell_length_b                    42.05117268806082 
_cell_length_c                    38.43573977349196 
_cell_angle_alpha                 90.2217341091752 
_cell_angle_beta                  90.51087134438359 
_cell_angle_gamma                 120.32526482137705 
loop_ 
_atom_site_label 
_atom_site_type_symbol 
_atom_site_fract_x 
_atom_site_fract_y 
_atom_site_fract_z 
_atom_site_charge 
C1          C  0.51457022  0.16264346  0.29231319     0.87200
C2          C  0.03540051  0.18654697  0.26553356    -0.53100
C3          C  0.03177594  0.15507744  0.25079711     0.10100
C4          C  0.50541506  0.13997398  0.22798370     0.21000
C5          C  0.51889625  0.19171870  0.26542970    -0.53800
C6          C  0.99631030  0.16552555  0.20414829     0.10200
C7          C  0.47736737  0.12961492  0.28564950    -0.53300
C8          C  0.47073181  0.11750653  0.25161124     0.10800
H9          H  0.05926687  0.20600477  0.28101428     0.15300
H10         H  0.50129767  0.12984244  0.20066423     0.01000
H11         H  0.52535912  0.21940597  0.27253895     0.15600
H12         H  0.45696751  0.11801995  0.30614929     0.15400
C13         C  0.11490713  0.16807585  0.29815060     0.87200
C14         C  0.11327709  0.13180133  0.29603481    -0.53100
C15         C  0.09750657  0.11224117  0.26593845     0.10100
C16         C  0.08270682  0.13206997  0.24114582     0.21000
C17         C  0.13411252  0.18861935  0.26467379    -0.53800
C18         C  0.11770487  0.16948277  0.23478668     0.10200
C19         C  0.07476753  0.15729972  0.29525201    -0.53300
C20         C  0.05794215  0.14226219  0.26378618     0.10800
H21         H  0.12514986  0.12377970  0.31688207     0.15300
H22         H  0.06896880  0.11658049  0.21691708     0.01000
H23         H  0.15944079  0.21528505  0.26475992     0.15600
H24         H  0.06225711  0.16576624  0.31521622     0.15400
C25         C  0.13341220  0.04340982  0.26076198     0.87200
C26         C  0.09680159  0.00966580  0.25054468    -0.53100
C27         C  0.07146644  0.01742779  0.23547490     0.10100
C28         C  0.09071063  0.05811691  0.22266645     0.21000
C29         C  0.15048604  0.05939359  0.22618300    -0.53800
C30         C  0.12803072  0.06642965  0.20550421     0.10200
C31         C  0.12467461  0.07154360  0.27665430    -0.53300
C32         C  0.10328314  0.08073316  0.25655198     0.10800
H33         H  0.08869604  0.98317370  0.26227533     0.15300
H34         H  0.07284359  0.06391042  0.20552627     0.01000
H35         H  0.17731170  0.06392331  0.21824297     0.15600
H36         H  0.13674682  0.08388471  0.30161298     0.15400
C37         C  0.99677524  0.40743705  0.24990541     0.87200
C38         C  0.46945403  0.42100067  0.26534538    -0.53100
C39         C  0.47153764  0.45064882  0.24851944     0.10100
C40         C  0.00845862  0.46558737  0.21490070     0.21000
C41         C  0.00677894  0.40567407  0.21258382    -0.53800
C42         C  0.01244578  0.43565499  0.19362924     0.10200
C43         C  0.02849335  0.44390182  0.26373167    -0.53300
C44         C  0.03599343  0.47507626  0.24565738     0.10800
H45         H  0.44641611  0.40269271  0.28171440     0.15300
H46         H  0.01306667  0.48968559  0.19933018     0.01000
H47         H  0.00871867  0.38278332  0.20182185     0.15600
H48         H  0.04488560  0.44326136  0.28526190     0.15400
C49         C  0.40058019  0.45263200  0.30578982     0.87200
C50         C  0.40996885  0.49193922  0.30212535    -0.53100
C51         C  0.41859340  0.50538713  0.26887574     0.10100
C52         C  0.42360437  0.47848754  0.24374083     0.21000
C53         C  0.37302985  0.43035070  0.27598824    -0.53800
C54         C  0.38495318  0.44386895  0.24350896     0.10200
C55         C  0.43662501  0.45538997  0.29714712    -0.53300
C56         C  0.44850059  0.46596057  0.26366436     0.10800
H57         H  0.40484648  0.50606703  0.32319615     0.15300
H58         H  0.43392456  0.49000506  0.21757859     0.01000
H59         H  0.34614518  0.40610752  0.28041495     0.15600
H60         H  0.45015550  0.44647409  0.31575500     0.15400
C61         C  0.37419425  0.06226136  0.27308281     0.87200
C62         C  0.40642735  0.09770574  0.26010620    -0.53100
C63         C  0.43096756  0.09295632  0.24032978     0.10100
C64         C  0.41417327  0.05174466  0.22812448     0.21000
C65         C  0.35276200  0.04326279  0.24006811    -0.53800
C66         C  0.37387824  0.03878651  0.21585837     0.10200
C67         C  0.39078311  0.03928915  0.28634294    -0.53300
C68         C  0.40810557  0.02965644  0.26171057     0.10800
H69         H  0.41332424  0.12399703  0.27195754     0.15300
H70         H  0.43115720  0.04781872  0.20844006     0.01000
H71         H  0.32411229  0.03569220  0.23547832     0.15600
H72         H  0.38497401  0.02800780  0.31239739     0.15400
O73         O  0.28752932  0.04016475  0.44367902    -0.79500
O74         O  0.30494576  0.05760281  0.05811365    -0.79500
O75         O  0.30086867  0.12893404  0.47727377    -0.79500
O76         O  0.22754705  0.47752617  0.01890691    -0.79400
O77         O  0.33480391  0.10931436  0.00643304    -0.79500
O78         O  0.25338471  0.49664730  0.46354118    -0.79500
O79         O  0.24901000  0.02200427  0.07936074    -0.79500
O80         O  0.27511108  0.08137887  0.42204482    -0.79500
C81         C  0.29216273  0.06364273  0.42082892     1.10200
C82         C  0.28356348  0.03331105  0.07907621     1.10100
C83         C  0.33826159  0.13184690  0.98309625     1.10300
C84         C  0.25320144  0.48095380  0.99881560     1.10100
O85         O  0.18490695  0.48451278  0.44866917    -0.79500
O86         O  0.28145810  0.13288744  0.02448437    -0.79500
O87         O  0.20025707  0.05900701  0.43762191    -0.79500
O88         O  0.20347614  0.05213841  0.05357600    -0.79400
O89         O  0.25764128  0.08661809  0.07870413    -0.79500
O90         O  0.21429000  0.01741361  0.42075318    -0.79500
O91         O  0.17290391  0.50132010  0.00839708    -0.79400
O92         O  0.22451988  0.10954507  0.49202410    -0.79500
Co93       Co  0.23748548  0.00848990  0.46263181     1.51500
Co94       Co  0.29291879  0.09364416  0.03951897     1.51700
Co95       Co  0.24907595  0.09191683  0.46004306     1.51600
Co96       Co  0.21515087  0.01485875  0.03843166     1.51500
O97         O  0.25470629  0.05265399  0.00730959    -1.41400
C98         C  0.16681553  0.47842235  0.98451450     1.10200
C99         C  0.25318171  0.12982085  0.00835714     1.10300
C100        C  0.19788658  0.03536548  0.41564146     1.10200
C101        C  0.22336209  0.07592736  0.07586576     1.10200
O102        O  0.48334712  0.24142028  0.44184959    -0.79500
O103        O  0.02353633  0.27770495  0.04987163    -0.79500
O104        O  0.08421340  0.33465144  0.46525878    -0.79500
O105        O  0.46605300  0.23095599  0.00925380    -0.79400
O106        O  0.08107572  0.31735600  0.01192201    -0.79500
O107        O  0.43372981  0.22130914  0.49285136    -0.79500
O108        O  0.48345810  0.25981286  0.07926581    -0.79500
O109        O  0.03416826  0.30761964  0.41105917    -0.79500
C110        C  0.01686686  0.27281716  0.40917168     1.10200
C111        C  0.51432806  0.27920283  0.09602308     1.10100
C112        C  0.08552825  0.29844529  0.98932348     1.10300
C113        C  0.43588105  0.21827440  0.99183462     1.10100
O114        O  0.41543019  0.27777391  0.47038973    -0.79500
O115        O  0.06731442  0.37054223  0.98622783    -0.79500
O116        O  0.00656512  0.35507486  0.42612465    -0.79500
O117        O  0.48494730  0.32151716  0.06230837    -0.79400
O118        O  0.05846347  0.35370908  0.05563849    -0.79500
O119        O  0.46296039  0.29217125  0.41476097    -0.79500
O120        O  0.43015261  0.26836521  0.03467433    -0.79400
O121        O  0.05511929  0.38457538  0.48118118    -0.79500
Co122      Co  0.45149574  0.26017333  0.45722150     1.51500
Co123      Co  0.03739368  0.32214293  0.01586017     1.51700
Co124      Co  0.04254617  0.34380841  0.44863159     1.51600
Co125      Co  0.48287117  0.27929445  0.03301936     1.51500
O126        O  0.99939450  0.28925146  0.97749036    -1.41400
C127        C  0.42180896  0.29055146  0.02060866     1.10200
C128        C  0.09186045  0.38010581  0.96138239     1.10300
C129        C  0.98378165  0.33237039  0.40399324     1.10200
C130        C  0.50753146  0.35532285  0.06044193     1.10200
O131        O  0.21349188  0.31259029  0.43343059    -0.79500
O132        O  0.25026231  0.27270993  0.09855313    -0.79500
O133        O  0.27507837  0.25362713  0.48254778    -0.79500
O134        O  0.18499806  0.31647192  0.06306875    -0.79400
O135        O  0.28376472  0.24810514  0.05399725    -0.79500
O136        O  0.18243516  0.29135505  0.49699651    -0.79500
O137        O  0.20094800  0.26132588  0.06735662    -0.79500
O138        O  0.22710508  0.27094800  0.45203504    -0.79500
C139        C  0.21019443  0.28104109  0.43047362     1.10200
C140        C  0.21530771  0.25474221  0.09346024     1.10100
C141        C  0.25908776  0.22058090  0.03667532     1.10300
C142        C  0.17168267  0.30797226  0.03243316     1.10100
O143        O  0.23532622  0.36575008  0.48426369    -0.79500
O144        O  0.33483272  0.32276292  0.03381791    -0.79500
O145        O  0.30079142  0.31071362  0.43675910    -0.79500
O146        O  0.24987483  0.33294153  0.09744300    -0.79400
O147        O  0.30518441  0.34917893  0.07989060    -0.79500
O148        O  0.28533565  0.35058651  0.45616486    -0.79500
O149        O  0.25061275  0.36919905  0.03859431    -0.79400
O150        O  0.32524128  0.32701996  0.50359384    -0.79500
Co151      Co  0.23381211  0.31742932  0.47893954     1.51500
Co152      Co  0.29195997  0.29912119  0.06414220     1.51700
Co153      Co  0.27613199  0.30192962  0.48023830     1.51600
Co154      Co  0.22609051  0.31247094  0.05010784     1.51500
O155        O  0.26027890  0.30048787  0.02421655    -1.41400
C156        C  0.24910898  0.38806621  0.01263045     1.10200
C157        C  0.33930010  0.30318139  0.01179535     1.10300
C158        C  0.30426523  0.34238391  0.43548562     1.10200
C159        C  0.28468889  0.35226798  0.10166126     1.10200
C160        C  0.11684941  0.29200284  0.99434642    -0.15700
C161        C  0.13343109  0.29922272  0.02606443    -0.30900
H162        H  0.12920257  0.28685918  0.97188542     0.13300
H163        H  0.12263393  0.30457970  0.54054287     0.13900
C164        C  0.37592186  0.30822068  0.00771077    -0.15700
C165        C  0.38668926  0.28890242  0.02742880    -0.30900
H166        H  0.38233486  0.30805381  0.54567728     0.13300
H167        H  0.36844478  0.27012586  0.04705751     0.13900
C168        C  0.26033862  0.44987888  0.99465117    -0.15700
C169        C  0.25159107  0.42412150  0.01930379    -0.30900
H170        H  0.24732012  0.42997836  0.45317409     0.13300
H171        H  0.24351587  0.42850204  0.04486300     0.13900
C172        C  0.25957629  0.18552106  0.03766966    -0.15700
C173        C  0.24320865  0.15888345  0.01299784    -0.30900
H174        H  0.27832592  0.18401313  0.05642444     0.13300
H175        H  0.24218329  0.17635466  0.54580172     0.13900
C176        C  0.13014815  0.44461691  0.98196770    -0.15700
C177        C  0.12346796  0.41795649  0.95887578    -0.30900
H178        H  0.11335204  0.43650927  0.45050464     0.13300
H179        H  0.14381705  0.42296415  0.93906116     0.13900
C180        C  0.37428912  0.16561060  0.97533316    -0.15700
C181        C  0.40636784  0.17843090  0.99372103    -0.30900
H182        H  0.37272421  0.18333662  0.95571036     0.13300
H183        H  0.35561881  0.18429726  0.53783424     0.13900
C184        C  0.35892843  0.02577630  0.18151517    -0.17800
C185        C  0.34094017  0.01894489  0.15504535     0.06200
C186        C  0.31787621  0.01705691  0.12717775     0.08100
C187        C  0.29990640  0.02122946  0.10491507    -0.18700
C188        C  0.31306755  0.06711931  0.39013370    -0.17800
C189        C  0.32610680  0.06858201  0.36184833     0.06200
C190        C  0.33974060  0.06877400  0.32819278     0.08100
C191        C  0.35314575  0.06721191  0.30097046    -0.18700
C192        C  0.30162216  0.37533372  0.13230040    -0.17800
C193        C  0.31951568  0.39310816  0.15759563     0.06200
C194        C  0.34248378  0.41230477  0.18703198     0.08100
C195        C  0.36225203  0.42734553  0.21230260    -0.18700
C196        C  0.38612524  0.43601505  0.33989234    -0.17800
C197        C  0.37089279  0.41757546  0.36501667     0.06200
C198        C  0.35002215  0.39250130  0.39144150     0.08100
C199        C  0.33010831  0.36971593  0.41214245    -0.18700
C200        C  0.50591056  0.38197002  0.08356758    -0.17800
C201        C  0.50586549  0.40169101  0.10685494     0.06200
C202        C  0.02638016  0.42671446  0.12926052     0.08100
C203        C  0.02100020  0.43655063  0.15714133    -0.18700
C204        C  0.99012043  0.37788493  0.27482756    -0.17800
C205        C  0.98581117  0.36312934  0.30294721     0.06200
C206        C  0.98250129  0.35240790  0.33861353     0.08100
C207        C  0.98153044  0.34447673  0.36916379    -0.18700
C208        C  0.14021106  0.07967371  0.17086516    -0.17800
C209        C  0.15887473  0.08733784  0.14511646     0.06200
C210        C  0.18456972  0.09068244  0.11966289     0.08100
C211        C  0.20516954  0.08772956  0.09984431    -0.18700
C212        C  0.15464045  0.03553783  0.28675348    -0.17800
C213        C  0.16509087  0.03222841  0.31531523     0.06200
C214        C  0.17327753  0.03135384  0.35119313     0.08100
C215        C  0.18150100  0.03235984  0.38166988    -0.18700
C216        C  0.13447197  0.18229369  0.20095891    -0.17800
C217        C  0.15109771  0.19491837  0.17415139     0.06200
C218        C  0.17244501  0.21230884  0.14413890     0.08100
C219        C  0.19159439  0.22980380  0.11993669    -0.18700
C220        C  0.18657737  0.25571993  0.40419569    -0.17800
C221        C  0.16830718  0.23392243  0.38172401     0.06200
C222        C  0.14871605  0.20912891  0.35436629     0.08100
C223        C  0.13309678  0.18946180  0.32971504    -0.18700
C224        C  0.99583704  0.16844059  0.16648162    -0.17800
C225        C  0.51879048  0.22391390  0.18007571     0.06200
C226        C  0.52022503  0.24763888  0.15311604     0.08100
C227        C  0.51935421  0.26515844  0.12855129    -0.18700
C228        C  0.00798447  0.22303390  0.28303279    -0.17800
C229        C  0.01208816  0.23846833  0.31058670     0.06200
C230        C  0.01586041  0.24866456  0.34606598     0.08100
C231        C  0.01753334  0.25696677  0.37635598    -0.18700
C232        C  0.48629925  0.17641910  0.76409240     0.87200
C233        C  0.01855443  0.18717084  0.76722583    -0.53100
C234        C  0.02835740  0.16377837  0.75223210     0.10100
C235        C  0.50415482  0.13710839  0.72495467     0.21000
C236        C  0.50146503  0.19419197  0.72936325    -0.53800
C237        C  0.00896732  0.17730043  0.69622983     0.10200
C238        C  0.45376325  0.13932544  0.75422167    -0.53300
C239        C  0.46303941  0.11620166  0.73719406     0.10800
H240        H  0.03232802  0.20437567  0.78975781     0.15300
H241        H  0.51117338  0.12049070  0.70751479     0.01000
H242        H  0.50275483  0.21949670  0.72108101     0.15600
H243        H  0.42682551  0.12979811  0.76577661     0.15400
C244        C  0.11601327  0.18554623  0.80180212     0.87200
C245        C  0.11231105  0.14794830  0.80023326    -0.53100
C246        C  0.09741701  0.12860509  0.76973570     0.10100
C247        C  0.08410210  0.14892817  0.74466616     0.21000
C248        C  0.13614387  0.20534625  0.76854223    -0.53800
C249        C  0.11920655  0.18629264  0.73873817     0.10200
C250        C  0.07675594  0.17749167  0.79721992    -0.53300
C251        C  0.05991855  0.16012592  0.76644624     0.10800
H252        H  0.12233538  0.13838269  0.82155798     0.15300
H253        H  0.07089178  0.13365618  0.72018431     0.01000
H254        H  0.16069291  0.23261517  0.76852331     0.15600
H255        H  0.06471412  0.18713007  0.81638639     0.15400
C256        C  0.13536083  0.06210915  0.76907097     0.87200
C257        C  0.09753961  0.02901025  0.77489540    -0.53100
C258        C  0.06818384  0.02955653  0.75889665     0.10100
C259        C  0.08168167  0.06391559  0.73513164     0.21000
C260        C  0.14019656  0.06296340  0.73024791    -0.53800
C261        C  0.11227401  0.06334986  0.71185959     0.10200
C262        C  0.13206248  0.09546371  0.77740724    -0.53300
C263        C  0.10388407  0.09722220  0.76074527     0.10800
H264        H  0.09460380  0.00696481  0.79166993     0.15300
H265        H  0.05904542  0.06464210  0.72057092     0.01000
H266        H  0.16294130  0.06176155  0.71813554     0.15600
H267        H  0.15187407  0.11655655  0.79503144     0.15400
C268        C  0.00252440  0.42104439  0.76374105     0.87200
C269        C  0.47033383  0.42321853  0.77603331    -0.53100
C270        C  0.47019442  0.45176450  0.75917910     0.10100
C271        C  0.99819292  0.47080813  0.72664486     0.21000
C272        C  0.00033403  0.41312358  0.72510936    -0.53800
C273        C  0.99781302  0.43878338  0.70531518     0.10200
C274        C  0.03520307  0.45948616  0.76847453    -0.53300
C275        C  0.03383556  0.48644098  0.74969975     0.10800
H276        H  0.45145814  0.40749664  0.79671759     0.15300
H277        H  0.99620646  0.49169080  0.71069025     0.01000
H278        H  0.00040661  0.38925579  0.71425314     0.15600
H279        H  0.05819486  0.46368230  0.78485917     0.15400
C280        C  0.39166991  0.43871580  0.81056643     0.87200
C281        C  0.38748914  0.47151264  0.80372157    -0.53100
C282        C  0.39932975  0.48718327  0.77157828     0.10100
C283        C  0.41566283  0.46742044  0.74940989     0.21000
C284        C  0.37194436  0.41189687  0.77979164    -0.53800
C285        C  0.38419924  0.42707587  0.74781999     0.10200
C286        C  0.43287079  0.45450290  0.80594795    -0.53300
C287        C  0.44527074  0.46528777  0.77256553     0.10800
H288        H  0.37659520  0.48167149  0.82361470     0.15300
H289        H  0.42587706  0.47989933  0.72352506     0.01000
H290        H  0.35012983  0.38345923  0.78309513     0.15600
H291        H  0.44939624  0.45134793  0.82614574     0.15400
C292        C  0.39073248  0.04577644  0.78780069     0.87200
C293        C  0.43120291  0.07317916  0.78290162    -0.53100
C294        C  0.44248640  0.07663536  0.74888908     0.10100
C295        C  0.41311725  0.04408148  0.72533720     0.21000
C296        C  0.36852526  0.05152051  0.75845769    -0.53800
C297        C  0.38001579  0.05024554  0.72565727     0.10200
C298        C  0.38923951  0.01047201  0.77981753    -0.53300
C299        C  0.39918565  0.00757108  0.74660252     0.10800
H300        H  0.44693922  0.09375601  0.80292152     0.15300
H301        H  0.42299454  0.04304502  0.69887324     0.01000
H302        H  0.34553772  0.05595453  0.76337880     0.15600
H303        H  0.37869552  0.98828320  0.79864108     0.15400
O304        O  0.25393938  0.00293986  0.92193208    -0.79500
O305        O  0.28676158  0.09599900  0.58328710    -0.79500
O306        O  0.30941337  0.12755556  0.96785808    -0.79500
O307        O  0.23449897  0.47549676  0.51450353    -0.79400
O308        O  0.31360192  0.09932171  0.51779628    -0.79500
O309        O  0.26962924  0.50877329  0.97928948    -0.79500
O310        O  0.26827081  0.03887831  0.56740419    -0.79500
O311        O  0.29222099  0.06165098  0.93770674    -0.79500
C312        C  0.28445383  0.03294214  0.91885742     1.10200
C313        C  0.28722036  0.06650130  0.58825342     1.10100
C314        C  0.32405913  0.12568395  0.49658682     1.10300
C315        C  0.24779316  0.47347794  0.48612819     1.10100
O316        O  0.19344543  0.48273050  0.96584682    -0.79500
O317        O  0.26739975  0.12879637  0.53224147    -0.79500
O318        O  0.25532795  0.09682992  0.91955311    -0.79500
O319        O  0.19445825  0.01094244  0.58222364    -0.79400
O320        O  0.21403044  0.06665043  0.56179480    -0.79500
O321        O  0.21681335  0.03857233  0.93246556    -0.79500
O322        O  0.17887914  0.49707740  0.50378995    -0.79400
O323        O  0.23529828  0.10381579  0.98642820    -0.79500
Co324      Co  0.24641656  0.02109659  0.96408742     1.51500
Co325      Co  0.26412133  0.07982549  0.53811381     1.51700
Co326      Co  0.26077376  0.08028718  0.96379410     1.51600
Co327      Co  0.21981992  0.02424642  0.53858003     1.51500
O328        O  0.24281065  0.05099007  0.49328084    -1.41400
C329        C  0.16544168  0.47753186  0.47574066     1.10200
C330        C  0.24426769  0.13324496  0.51472598     1.10300
C331        C  0.22747718  0.06612837  0.91157294     1.10200
C332        C  0.19292265  0.04030711  0.58239398     1.10200
O333        O  0.46539173  0.27056713  0.91709852    -0.79500
O334        O  0.05283692  0.31326906  0.57020945    -0.79500
O335        O  0.06495397  0.28851172  0.96247054    -0.79500
O336        O  0.41638325  0.24843452  0.52949724    -0.79400
O337        O  0.05801377  0.29178456  0.50518568    -0.79500
O338        O  0.42788865  0.24025330  0.97638200    -0.79500
O339        O  0.48146517  0.25944159  0.55895372    -0.79500
O340        O  0.02642119  0.29287019  0.90496228    -0.79500
C341        C  0.99719904  0.26266211  0.89647605     1.10200
C342        C  0.50980190  0.26644383  0.57823347     1.10100
C343        C  0.08485244  0.31041599  0.48499449     1.10300
C344        C  0.41021957  0.21934619  0.51406846     1.10100
O345        O  0.44336275  0.31320675  0.99869458    -0.79500
O346        O  0.07999240  0.36608490  0.52004843    -0.79500
O347        O  0.02285387  0.35254345  0.93624942    -0.79500
O348        O  0.45311088  0.30429850  0.57598155    -0.79400
O349        O  0.01766070  0.35156386  0.55141140    -0.79500
O350        O  0.48234282  0.34198506  0.93849907    -0.79500
O351        O  0.44626588  0.32189195  0.50965514    -0.79400
O352        O  0.08852991  0.35714831  0.93774751    -0.79500
Co353      Co  0.45740047  0.29285856  0.95993129     1.51500
Co354      Co  0.03398945  0.31772733  0.52614157     1.51700
Co355      Co  0.04204169  0.31924377  0.95123361     1.51600
Co356      Co  0.46689196  0.29374193  0.53221856     1.51500
O357        O  0.00295869  0.30779874  0.48192934    -1.41400
C358        C  0.41842831  0.30424779  0.48955855     1.10200
C359        C  0.08045855  0.39179688  0.50292089     1.10300
C360        C  0.99997521  0.34308435  0.91154879     1.10200
C361        C  0.48302752  0.33498201  0.57669307     1.10200
O362        O  0.22907023  0.31021587  0.95033073    -0.79500
O363        O  0.20602039  0.25396557  0.57254184    -0.79500
O364        O  0.23804850  0.22453256  0.01557761    -0.79500
O365        O  0.19771989  0.33310341  0.53864926    -0.79400
O366        O  0.23096624  0.22984089  0.52026395    -0.79500
O367        O  0.19186803  0.30782491  0.00720787    -0.79500
O368        O  0.22009101  0.30818052  0.59452220    -0.79500
O369        O  0.21118183  0.25499401  0.96903811    -0.79500
C370        C  0.20885945  0.27565279  0.94684890     1.10200
C371        C  0.20078954  0.27324586  0.59435773     1.10100
C372        C  0.25043504  0.22567822  0.49810020     1.10300
C373        C  0.17344878  0.30915386  0.51758186     1.10100
O374        O  0.24403040  0.37476049  0.98211253    -0.79500
O375        O  0.30812050  0.28211114  0.54158897    -0.79500
O376        O  0.28821338  0.30935275  0.95039034    -0.79500
O377        O  0.29693436  0.35757715  0.57831551    -0.79400
O378        O  0.28045258  0.30224580  0.59747319    -0.79500
O379        O  0.30039455  0.35940322  0.98034550    -0.79500
O380        O  0.27769577  0.38402121  0.52418447    -0.79400
O381        O  0.31221917  0.27682029  0.99569059    -0.79500
Co382      Co  0.24898525  0.33437919  0.99711036     1.51500
Co383      Co  0.25577496  0.26925033  0.55550624     1.51700
Co384      Co  0.26128640  0.26791898  0.98514218     1.51600
Co385      Co  0.24886389  0.34388576  0.55653769     1.51500
O386        O  0.25280443  0.30728841  0.52431456    -1.41400
C387        C  0.25980593  0.39148725  0.50285536     1.10200
C388        C  0.33315730  0.30760694  0.52299983     1.10300
C389        C  0.30660339  0.34431239  0.95469848     1.10200
C390        C  0.29967717  0.33706043  0.60040936     1.10200
C391        C  0.11891646  0.30669911  0.48595201    -0.15700
C392        C  0.13523533  0.30445185  0.51600362    -0.30900
H393        H  0.13381936  0.31113140  0.46180058     0.13300
H394        H  0.11990296  0.30329739  0.04823851     0.13900
C395        C  0.37069796  0.31148000  0.52157057    -0.15700
C396        C  0.38675194  0.31124689  0.49102875    -0.30900
H397        H  0.39322668  0.32637198  0.98729635     0.13300
H398        H  0.37248280  0.30973279  0.46678634     0.13900
C399        C  0.25378766  0.44257257  0.47893628    -0.15700
C400        C  0.26355272  0.42802594  0.50481180    -0.30900
H401        H  0.27047863  0.44666964  0.96971843     0.13300
H402        H  0.27221834  0.44241426  0.52974494     0.13900
C403        C  0.24633982  0.18903845  0.49237989    -0.15700
C404        C  0.24224592  0.16700448  0.51941950    -0.30900
H405        H  0.25101820  0.18185767  0.46649041     0.13300
H406        H  0.22456490  0.16018442  0.99398860     0.13900
C407        C  0.12721200  0.44733161  0.47544748    -0.15700
C408        C  0.11271572  0.42862193  0.50483264    -0.30900
H409        H  0.10993039  0.43989078  0.00182215     0.13300
H410        H  0.12848267  0.43722491  0.52911296     0.13900
C411        C  0.36302373  0.15555835  0.49667284    -0.15700
C412        C  0.37458413  0.18461943  0.51849319    -0.30900
H413        H  0.38065019  0.15613547  0.47583250     0.13300
H414        H  0.40882750  0.16129780  0.01339408     0.13900
C415        C  0.36254617  0.05471438  0.69448472    -0.17800
C416        C  0.34689221  0.05815407  0.66920166     0.06200
C417        C  0.32727875  0.06166986  0.64021424     0.08100
C418        C  0.30960274  0.06415441  0.61614960    -0.18700
C419        C  0.31133002  0.03511353  0.89500524    -0.17800
C420        C  0.33401257  0.03876809  0.87408179     0.06200
C421        C  0.35877074  0.04355395  0.84753080     0.08100
C422        C  0.37631415  0.04619809  0.82208793    -0.18700
C423        C  0.32233465  0.35382470  0.63112301    -0.17800
C424        C  0.33881143  0.36967306  0.65753586     0.06200
C425        C  0.35595561  0.38939404  0.68879179     0.08100
C426        C  0.36926671  0.40655029  0.71556385    -0.18700
C427        C  0.37790414  0.42138954  0.84488604    -0.17800
C428        C  0.36519337  0.40541278  0.87198216     0.06200
C429        C  0.34818924  0.38523162  0.90266492     0.08100
C430        C  0.33117559  0.36708828  0.92754471    -0.18700
C431        C  0.48567131  0.36498906  0.59734801    -0.17800
C432        C  0.48644780  0.38866144  0.61596299     0.06200
C433        C  0.99320505  0.41922726  0.64029624     0.08100
C434        C  0.99486127  0.43363082  0.66803812    -0.18700
C435        C  0.00534002  0.39586761  0.78824084    -0.17800
C436        C  0.00775847  0.38404768  0.81609350     0.06200
C437        C  0.00898991  0.37519192  0.85136048     0.08100
C438        C  0.00717906  0.36503348  0.88098322    -0.18700
C439        C  0.11260505  0.05919861  0.67445370    -0.17800
C440        C  0.12437970  0.05415684  0.64752527     0.06200
C441        C  0.14556455  0.04814857  0.62226742     0.08100
C442        C  0.16642033  0.04378255  0.60373196    -0.18700
C443        C  0.16342827  0.06094794  0.79159850    -0.17800
C444        C  0.18020587  0.06037719  0.81715279     0.06200
C445        C  0.19542717  0.06061372  0.85035186     0.08100
C446        C  0.20834113  0.06213894  0.87902365    -0.18700
C447        C  0.13105896  0.20229981  0.70488263    -0.17800
C448        C  0.14218103  0.21795140  0.67763524     0.06200
C449        C  0.15814753  0.23779540  0.64698275     0.08100
C450        C  0.17542035  0.25474481  0.62198726    -0.18700
C451        C  0.18579495  0.25953648  0.91643432    -0.17800
C452        C  0.16834721  0.24378705  0.89048722     0.06200
C453        C  0.14952433  0.22392501  0.85996182     0.08100
C454        C  0.13422503  0.20655928  0.83385421    -0.18700
C455        C  0.02032712  0.18537318  0.66046004    -0.17800
C456        C  0.51475938  0.19550619  0.64478001     0.06200
C457        C  0.51138705  0.21708404  0.61878973     0.08100
C458        C  0.50911921  0.23853385  0.59981653    -0.18700
C459        C  0.97904825  0.21389785  0.76941316    -0.17800
C460        C  0.97939113  0.22934920  0.79592928     0.06200
C461        C  0.98572195  0.24162106  0.83079468     0.08100
C462        C  0.99220919  0.25032964  0.86103877    -0.18700
C463        C  0.49873835  0.69556796  0.27590018     0.87200
C464        C  0.02810969  0.65787511  0.29333263    -0.53100
C465        C  0.03148610  0.64300722  0.26267598     0.10100
C466        C  0.49681950  0.64554022  0.23352740     0.21000
C467        C  0.50276840  0.70683060  0.23809700    -0.53800
C468        C  0.01292152  0.67937548  0.22839805     0.10200
C469        C  0.46337717  0.65873464  0.27765286    -0.53300
C470        C  0.46064231  0.63195159  0.25501445     0.10800
H471        H  0.04492817  0.66170652  0.31640793     0.15300
H472        H  0.49634422  0.62478865  0.21527162     0.01000
H473        H  0.50825634  0.73381235  0.22984065     0.15600
H474        H  0.44291261  0.65546455  0.29614059     0.15400
C475        C  0.13759132  0.68642643  0.26680568     0.87200
C476        C  0.13449060  0.64911353  0.26946067    -0.53100
C477        C  0.10585216  0.62087549  0.25060606     0.10100
C478        C  0.08491406  0.63504501  0.22768324     0.21000
C479        C  0.14344967  0.69542268  0.22869446    -0.53800
C480        C  0.11658859  0.66874018  0.20771519     0.10200
C481        C  0.09955050  0.68021545  0.27372106    -0.53300
C482        C  0.07084863  0.65280801  0.25463722     0.10800
H483        H  0.15318721  0.64546708  0.28654955     0.15300
H484        H  0.06281804  0.61344362  0.21091997     0.01000
H485        H  0.16747480  0.72000322  0.21889588     0.15600
H486        H  0.09652822  0.69790974  0.29240443     0.15400
C487        C  0.12049636  0.55193974  0.29356322     0.87200
C488        C  0.08676043  0.51539198  0.28681344    -0.53100
C489        C  0.06900479  0.51235077  0.25570556     0.10100
C490        C  0.08900950  0.54968816  0.23428758     0.21000
C491        C  0.14576317  0.55953591  0.26205657    -0.53800
C492        C  0.12927424  0.55786670  0.23075692     0.10200
C493        C  0.10572615  0.57788240  0.29183181    -0.53300
C494        C  0.09359960  0.58126543  0.25973946     0.10800
H495        H  0.07766059  0.49459703  0.30665347     0.15300
H496        H  0.07526450  0.54860432  0.20912581     0.01000
H497        H  0.17417658  0.56556270  0.26439319     0.15600
H498        H  0.10985889  0.59634485  0.31352673     0.15400
C499        C  0.00986568  0.95177014  0.29737891     0.87200
C500        C  0.46840926  0.92387382  0.28218229    -0.53100
C501        C  0.46624678  0.94962624  0.26211385     0.10100
C502        C  0.99721046  0.96824930  0.23571505     0.21000
C503        C  0.00956833  0.92624868  0.26783091    -0.53800
C504        C  0.00223907  0.93465122  0.23546725     0.10200
C505        C  0.03632460  0.99115935  0.28762977    -0.53300
C506        C  0.03413001  0.99888845  0.25324917     0.10800
H507        H  0.45007651  0.90871515  0.30337761     0.15300
H508        H  0.99136445  0.97562727  0.20967094     0.01000
H509        H  0.01407019  0.90331801  0.27236543     0.15600
H510        H  0.06013168  0.00848629  0.30426048     0.15400
C511        C  0.36618625  0.92669409  0.27917236     0.87200
C512        C  0.37395000  0.96539529  0.28296323    -0.53100
C513        C  0.40138790  0.99081009  0.26221619     0.10100
C514        C  0.41825560  0.97272993  0.23809008     0.21000
C515        C  0.35698087  0.91681694  0.24096713    -0.53800
C516        C  0.38376759  0.94072520  0.21911718     0.10200
C517        C  0.40303459  0.92945065  0.28542918    -0.53300
C518        C  0.43118084  0.95218824  0.26350260     0.10800
H519        H  0.35682822  0.97097718  0.29997432     0.15300
H520        H  0.43995233  0.99211723  0.22018249     0.01000
H521        H  0.33131784  0.89304074  0.23188224     0.15600
H522        H  0.40470603  0.91266875  0.30596625     0.15400
C523        C  0.36002584  0.55207429  0.26623665     0.87200
C524        C  0.39410869  0.58983731  0.27007577    -0.53100
C525        C  0.42475793  0.59521605  0.25219613     0.10100
C526        C  0.41668796  0.56008348  0.23084369     0.21000
C527        C  0.35198407  0.54646999  0.22763448    -0.53800
C528        C  0.38117443  0.55023151  0.20870975     0.10200
C529        C  0.37220003  0.52511162  0.27579589    -0.53300
C530        C  0.40250696  0.52899667  0.25843305     0.10800
H531        H  0.39237889  0.61012177  0.28564374     0.15300
H532        H  0.44042605  0.56312532  0.21556761     0.01000
H533        H  0.32535176  0.53945180  0.21618667     0.15600
H534        H  0.35709666  0.50405628  0.29507432     0.15400
O535        O  0.25019912  0.53836302  0.41938849    -0.79500
O536        O  0.30733461  0.56341930  0.04918199    -0.79500
O537        O  0.33587290  0.62405276  0.49603807    -0.79500
O538        O  0.22411913  0.97261295  0.02663397    -0.79400
O539        O  0.32653857  0.61452083  0.99952969    -0.79500
O540        O  0.26020712  0.99261910  0.49837838    -0.79500
O541        O  0.25578737  0.52349292  0.07486036    -0.79500
O542        O  0.30735200  0.57661313  0.43683971    -0.79500
C543        C  0.28464370  0.55538654  0.41371330     1.10200
C544        C  0.29069622  0.53869626  0.07133155     1.10100
C545        C  0.32802033  0.63845866  0.97901973     1.10300
C546        C  0.25009853  0.97173694  0.01018775     1.10100
O547        O  0.18457897  0.97272344  0.47730424    -0.79500
O548        O  0.27467094  0.63578499  0.02920031    -0.79500
O549        O  0.24976014  0.59486362  0.43236225    -0.79500
O550        O  0.20267532  0.54814190  0.06305612    -0.79400
O551        O  0.25922385  0.58646450  0.08186513    -0.79500
O552        O  0.20371230  0.55466199  0.46332606    -0.79500
O553        O  0.17754814  0.00351147  0.00212619    -0.79400
O554        O  0.27781794  0.64091805  0.48619250    -0.79500
Co555      Co  0.22836052  0.52540816  0.46684941     1.51500
Co556      Co  0.28986334  0.59745844  0.03757976     1.51700
Co557      Co  0.29153289  0.60567289  0.46545859     1.51600
Co558      Co  0.21623777  0.51547109  0.03896803     1.51500
O559        O  0.24953614  0.55770214  0.00642174    -1.41400
C560        C  0.16974008  0.97604082  0.98355208     1.10200
C561        C  0.24677980  0.63454018  0.01388794     1.10300
C562        C  0.21548537  0.57697371  0.43861160     1.10200
C563        C  0.22423755  0.57066422  0.08562410     1.10200
O564        O  0.45532765  0.76627753  0.43005683    -0.79500
O565        O  0.03855228  0.81075291  0.08813471    -0.79500
O566        O  0.08390512  0.84239957  0.48974584    -0.79500
O567        O  0.45054335  0.72441654  0.01250835    -0.79400
O568        O  0.07978983  0.82118204  0.03175838    -0.79500
O569        O  0.45634490  0.74256768  0.49604531    -0.79500
O570        O  0.50449001  0.75763348  0.05965609    -0.79500
O571        O  0.02628871  0.79357512  0.44870426    -0.79500
C572        C  0.00293968  0.77804016  0.42337015     1.10200
C573        C  0.52492790  0.77759266  0.08371718     1.10100
C574        C  0.07545063  0.79241682  0.01587594     1.10300
C575        C  0.42571162  0.71793071  0.99019155     1.10100
O576        O  0.41945190  0.78249929  0.47884829    -0.79500
O577        O  0.06552670  0.87839757  0.00667254    -0.79500
O578        O  0.05693682  0.86753503  0.43934562    -0.79500
O579        O  0.47513297  0.80854725  0.07840856    -0.79400
O580        O  0.01473391  0.85965045  0.06370097    -0.79500
O581        O  0.48007857  0.83680188  0.44663103    -0.79500
O582        O  0.41745504  0.76591562  0.03522295    -0.79400
O583        O  0.04932681  0.88367214  0.50616287    -0.79500
Co584      Co  0.47050600  0.78973760  0.47414879     1.51500
Co585      Co  0.04516069  0.84036372  0.04443871     1.51700
Co586      Co  0.03503020  0.83848911  0.47945172     1.51600
Co587      Co  0.46486548  0.76605365  0.04418081     1.51500
O588        O  0.99782632  0.80316896  0.01411048    -1.41400
C589        C  0.41416176  0.79202082  0.02339912     1.10200
C590        C  0.08794953  0.87728849  0.98496595     1.10300
C591        C  0.02820107  0.86960529  0.43415420     1.10200
C592        C  0.49085233  0.84373910  0.07437268     1.10200
O593        O  0.19024167  0.79628336  0.42806042    -0.79500
O594        O  0.25298958  0.75979755  0.07840205    -0.79500
O595        O  0.26866162  0.75125094  0.46901436    -0.79500
O596        O  0.20115285  0.83100176  0.03478024    -0.79400
O597        O  0.22999954  0.73256842  0.01321527    -0.79500
O598        O  0.16930327  0.77522005  0.49625477    -0.79500
O599        O  0.21550435  0.78056862  0.06326803    -0.79500
O600        O  0.21607482  0.76275517  0.43967365    -0.79500
C601        C  0.19699750  0.77124597  0.41903776     1.10200
C602        C  0.22242428  0.75902433  0.08167456     1.10100
C603        C  0.24690881  0.72325055  0.99200416     1.10300
C604        C  0.17093336  0.80495226  0.02367563     1.10100
O605        O  0.21396803  0.85089423  0.47872859    -0.79500
O606        O  0.30679536  0.78408822  0.02680448    -0.79500
O607        O  0.28733557  0.80656629  0.42424155    -0.79500
O608        O  0.25908057  0.85496239  0.07775629    -0.79400
O609        O  0.29422664  0.83286778  0.06016443    -0.79500
O610        O  0.26270846  0.83969168  0.44176222    -0.79500
O611        O  0.27097960  0.87618932  0.00940808    -0.79400
O612        O  0.31355440  0.82617831  0.49102365    -0.79500
Co613      Co  0.21609790  0.80427296  0.47128942     1.51500
Co614      Co  0.25851133  0.78265520  0.03436477     1.51700
Co615      Co  0.26471878  0.79690724  0.46813470     1.51600
Co616      Co  0.24733841  0.82886046  0.03462671     1.51500
O617        O  0.24878894  0.80345589  0.99080846    -1.41400
C618        C  0.25069929  0.88255054  0.98898440     1.10200
C619        C  0.33296556  0.80868953  0.00899972     1.10300
C620        C  0.28180245  0.83310130  0.41960556     1.10200
C621        C  0.28903269  0.85466350  0.08009480     1.10200
C622        C  0.10439672  0.78240125  0.01694693    -0.15700
C623        C  0.13660262  0.80397631  0.03344145    -0.30900
H624        H  0.10160319  0.76085825  0.99928304     0.13300
H625        H  0.10170873  0.76532776  0.53006596     0.13900
C626        C  0.37101750  0.81485753  0.01130679    -0.15700
C627        C  0.37908192  0.79193947  0.02852030    -0.30900
H628        H  0.38221593  0.84007651  0.52916562     0.13300
H629        H  0.35784827  0.76983103  0.04386959     0.13900
C630        C  0.25447589  0.93886276  0.01376698    -0.15700
C631        C  0.25685412  0.92050137  0.98584688    -0.30900
H632        H  0.23520216  0.92095569  0.54759929     0.13300
H633        H  0.25654003  0.93058209  0.95992966     0.13900
C634        C  0.23916047  0.68469026  0.98982541    -0.15700
C635        C  0.24121659  0.66660029  0.01792360    -0.30900
H636        H  0.23913690  0.67387475  0.96408191     0.13300
H637        H  0.21339354  0.65593414  0.51855362     0.13900
C638        C  0.13151017  0.94446503  0.98479542    -0.15700
C639        C  0.12259538  0.91055333  0.97444199    -0.30900
H640        H  0.10987945  0.93131454  0.47287683     0.13300
H641        H  0.14270189  0.90655115  0.96031851     0.13900
C642        C  0.36327372  0.67175856  0.97077236    -0.15700
C643        C  0.39527987  0.67954575  0.98620878    -0.30900
H644        H  0.36167812  0.69285948  0.95588808     0.13300
H645        H  0.40440748  0.67399717  0.49290262     0.13900
C646        C  0.37570772  0.54367163  0.17167245    -0.17800
C647        C  0.35982424  0.53723213  0.14385927     0.06200
C648        C  0.33484219  0.53179184  0.11621358     0.08100
C649        C  0.31297136  0.53139716  0.09516808    -0.18700
C650        C  0.29692129  0.55232365  0.37980955    -0.17800
C651        C  0.30454662  0.54979712  0.35013647     0.06200
C652        C  0.31521702  0.54791395  0.31579751     0.08100
C653        C  0.33056265  0.54826198  0.28929225    -0.18700
C654        C  0.31776102  0.87962624  0.10399151    -0.17800
C655        C  0.34020720  0.89968403  0.12567621     0.06200
C656        C  0.36330747  0.92077950  0.15410145     0.08100
C657        C  0.37766015  0.93427147  0.18195060    -0.18700
C658        C  0.33833638  0.90191828  0.30382755    -0.17800
C659        C  0.32138721  0.88579235  0.32919236     0.06200
C660        C  0.30683221  0.86968715  0.36152321     0.08100
C661        C  0.29600832  0.85501460  0.38915399    -0.18700
C662        C  0.48451497  0.86629420  0.09898220    -0.17800
C663        C  0.48357753  0.88696289  0.12067830     0.06200
C664        C  0.99574307  0.89694473  0.17696746     0.08100
C665        C  0.99892828  0.91370883  0.20388933    -0.18700
C666        C  0.01750487  0.94221079  0.33159708    -0.17800
C667        C  0.02289673  0.93164115  0.35870566     0.06200
C668        C  0.02729339  0.91470442  0.38813636     0.08100
C669        C  0.02890746  0.89595731  0.41065851    -0.18700
C670        C  0.14912743  0.56414739  0.19806879    -0.17800
C671        C  0.16791256  0.56922100  0.17238344     0.06200
C672        C  0.19044535  0.57390005  0.14282388     0.08100
C673        C  0.20802751  0.57519148  0.11724509    -0.18700
C674        C  0.13847357  0.55518108  0.32711585    -0.17800
C675        C  0.15306819  0.56157955  0.35528882     0.06200
C676        C  0.17152435  0.57041194  0.38755268     0.08100
C677        C  0.19011606  0.57599119  0.41323576    -0.18700
C678        C  0.12280751  0.67279564  0.17072787    -0.17800
C679        C  0.14058607  0.68693935  0.14491349     0.06200
C680        C  0.16850737  0.71010266  0.12128917     0.08100
C681        C  0.19377699  0.73210118  0.10360170    -0.18700
C682        C  0.18597201  0.75405806  0.38503553    -0.17800
C683        C  0.18101220  0.74245316  0.35537442     0.06200
C684        C  0.17485209  0.72866948  0.32060787     0.08100
C685        C  0.16376077  0.71309870  0.29274302    -0.18700
C686        C  0.02098902  0.69708757  0.19477408    -0.17800
C687        C  0.52666829  0.71203117  0.15615820     0.06200
C688        C  0.53498664  0.73954618  0.13137336     0.08100
C689        C  0.53487843  0.76084095  0.11067933    -0.18700
C690        C  0.00698491  0.69686682  0.32223452    -0.17800
C691        C  0.00889957  0.71550668  0.34688207     0.06200
C692        C  0.00981332  0.73787112  0.37466322     0.08100
C693        C  0.00834264  0.75672213  0.39749376    -0.18700
C694        C  0.50170057  0.68441454  0.76812066     0.87200
C695        C  0.01248236  0.68716487  0.76821993    -0.53100
C696        C  0.01512809  0.66127432  0.74857702     0.10100
C697        C  0.49390520  0.63236079  0.72535976     0.21000
C698        C  0.48722952  0.68680587  0.73249866    -0.53800
C699        C  0.96373787  0.65787361  0.71359897     0.10200
C700        C  0.47577584  0.64534291  0.78078463    -0.53300
C701        C  0.46799145  0.61765652  0.75723619     0.10800
H702        H  0.03562208  0.70948014  0.78229311     0.15300
H703        H  0.49087523  0.61066476  0.70682524     0.01000
H704        H  0.48122049  0.70829477  0.72551997     0.15600
H705        H  0.46154927  0.64078596  0.80532712     0.15400
C706        C  0.09664090  0.66339493  0.79451455     0.87200
C707        C  0.08071681  0.62255954  0.78928844    -0.53100
C708        C  0.07191232  0.61104321  0.75547619     0.10100
C709        C  0.06661198  0.63974583  0.73356918     0.21000
C710        C  0.12231454  0.68448880  0.76380748    -0.53800
C711        C  0.10607189  0.67272789  0.73180816     0.10200
C712        C  0.06319993  0.66658558  0.78958922    -0.53300
C713        C  0.04641832  0.65481299  0.75743753     0.10800
H714        H  0.08512953  0.60649116  0.80892820     0.15300
H715        H  0.05322398  0.62937460  0.70770354     0.01000
H716        H  0.15031098  0.70755623  0.76729997     0.15600
H717        H  0.05339835  0.67665752  0.81059007     0.15400
C718        C  0.13111856  0.56794684  0.76517418     0.87200
C719        C  0.09417152  0.53471442  0.77464138    -0.53100
C720        C  0.06577413  0.52541846  0.75134973     0.10100
C721        C  0.07635265  0.55495522  0.72300131     0.21000
C722        C  0.13824707  0.56147678  0.72804406    -0.53800
C723        C  0.11029397  0.55597860  0.70559902     0.10200
C724        C  0.12426757  0.59968800  0.76220774    -0.53300
C725        C  0.09294340  0.59237156  0.74322301     0.10800
H726        H  0.09206317  0.51895388  0.79761435     0.15300
H727        H  0.05371646  0.54984421  0.70449823     0.01000
H728        H  0.16398094  0.56354642  0.71975574     0.15600
H729        H  0.14026085  0.62431582  0.77813904     0.15400
C730        C  0.00462470  0.94635978  0.80479748     0.87200
C731        C  0.46645070  0.93940148  0.80073678    -0.53100
C732        C  0.46202422  0.95448522  0.77076140     0.10100
C733        C  0.99616444  0.97290084  0.74664540     0.21000
C734        C  0.01137812  0.92932215  0.77201138    -0.53800
C735        C  0.00617371  0.94259762  0.74137823     0.10200
C736        C  0.02841099  0.98765095  0.80250853    -0.53300
C737        C  0.02901659  0.00201318  0.77045385     0.10800
H738        H  0.44525062  0.92340870  0.81939149     0.15300
H739        H  0.99229906  0.98432634  0.72202425     0.01000
H740        H  0.01851037  0.90782835  0.77304779     0.15600
H741        H  0.04828713  0.00330427  0.82312752     0.15400
C742        C  0.35555297  0.90953442  0.76175062     0.87200
C743        C  0.35401744  0.94271544  0.74866800    -0.53100
C744        C  0.38594481  0.96922223  0.73317946     0.10100
C745        C  0.41267840  0.95458876  0.72478534     0.21000
C746        C  0.35857870  0.89173338  0.72858323    -0.53800
C747        C  0.38796644  0.91550596  0.70870265     0.10200
C748        C  0.39312852  0.92445650  0.78009740    -0.53300
C749        C  0.42375569  0.94643450  0.76036249     0.10800
H750        H  0.33272378  0.94824313  0.75776094     0.15300
H751        H  0.43618236  0.97331042  0.70813284     0.01000
H752        H  0.33847655  0.86374669  0.72056125     0.15600
H753        H  0.39406198  0.91582547  0.80635185     0.15400
C754        C  0.36263305  0.55406853  0.76794251     0.87200
C755        C  0.40124330  0.58653188  0.77372209    -0.53100
C756        C  0.42894429  0.58496434  0.75623035     0.10100
C757        C  0.41371613  0.54895868  0.73396359     0.21000
C758        C  0.35632317  0.55159827  0.72897727    -0.53800
C759        C  0.38268368  0.54875226  0.71079240     0.10200
C760        C  0.36491526  0.52043413  0.77693905    -0.53300
C761        C  0.39212753  0.51731369  0.76053174     0.10800
H762        H  0.40509958  0.60979306  0.78925766     0.15300
H763        H  0.43521885  0.54672947  0.71927371     0.01000
H764        H  0.33300363  0.55194739  0.71671385     0.15600
H765        H  0.34554173  0.50043497  0.79507130     0.15400
O766        O  0.24459243  0.51512917  0.91527826    -0.79500
O767        O  0.29950973  0.57858400  0.56568655    -0.79500
O768        O  0.29831935  0.63557339  0.96806087    -0.79500
O769        O  0.21594808  0.97422480  0.53571633    -0.79400
O770        O  0.30821389  0.63584070  0.53856593    -0.79500
O771        O  0.27000519  0.99719289  0.98924281    -0.79500
O772        O  0.26459053  0.51968717  0.56715339    -0.79500
O773        O  0.28193276  0.57343574  0.93115106    -0.79500
C774        C  0.27184893  0.54664654  0.90893196     1.10200
C775        C  0.29412021  0.54811664  0.57561814     1.10100
C776        C  0.33744557  0.64273331  0.52274678     1.10300
C777        C  0.23873892  0.96854655  0.51925914     1.10100
O778        O  0.19605362  0.97491846  0.96867721    -0.79500
O779        O  0.23059388  0.60266561  0.51691383    -0.79500
O780        O  0.24189815  0.60646178  0.92393628    -0.79500
O781        O  0.20805354  0.54319724  0.56337732    -0.79400
O782        O  0.24932737  0.59934764  0.58310743    -0.79500
O783        O  0.20648240  0.54705844  0.93483985    -0.79500
O784        O  0.17158817  0.00447062  0.51501361    -0.79400
O785        O  0.22668815  0.60854078  0.99273098    -0.79500
Co786      Co  0.24090938  0.53067680  0.96045486     1.51500
Co787      Co  0.26270669  0.58657894  0.54058452     1.51700
Co788      Co  0.25119998  0.58762499  0.96478746     1.51600
Co789      Co  0.22635942  0.51495310  0.53300273     1.51500
O790        O  0.26520788  0.56081105  0.49911324    -1.41400
C791        C  0.16129461  0.97665847  0.49545603     1.10200
C792        C  0.24736789  0.63243879  0.50028229     1.10300
C793        C  0.21483112  0.57545185  0.91553702     1.10200
C794        C  0.21699418  0.57138987  0.58318263     1.10200
O795        O  0.47441114  0.78066669  0.92378715    -0.79500
O796        O  0.00450902  0.76250172  0.56722501    -0.79500
O797        O  0.04893675  0.77521344  0.99495389    -0.79500
O798        O  0.42072881  0.75077907  0.53279240    -0.79400
O799        O  0.05982306  0.79435843  0.52259893    -0.79500
O800        O  0.42370866  0.74421624  0.97569688    -0.79500
O801        O  0.46518177  0.77591687  0.58879879    -0.79500
O802        O  0.00880274  0.76757995  0.93874409    -0.79500
C803        C  0.98397095  0.76809094  0.92083990     1.10200
C804        C  0.48058570  0.75669901  0.58493204     1.10100
C805        C  0.08611041  0.81670247  0.50417712     1.10300
C806        C  0.42862546  0.72958403  0.51564255     1.10100
O807        O  0.43957470  0.81583610  0.00498578    -0.79500
O808        O  0.07628523  0.86823036  0.54702636    -0.79500
O809        O  0.02930239  0.84111840  0.94139557    -0.79500
O810        O  0.48341677  0.85108693  0.57380335    -0.79400
O811        O  0.02133332  0.83363308  0.59551594    -0.79500
O812        O  0.49490526  0.85005345  0.95940692    -0.79500
O813        O  0.43486121  0.82536751  0.51815719    -0.79400
O814        O  0.08058449  0.84644022  0.97228618    -0.79500
Co815      Co  0.46135230  0.79846959  0.96947534     1.51500
Co816      Co  0.03824207  0.81414051  0.55564358     1.51700
Co817      Co  0.02900847  0.80401006  0.97550678     1.51600
Co818      Co  0.45375427  0.80245081  0.55109456     1.51500
O819        O  0.00114665  0.81089567  0.51913385    -1.41400
C820        C  0.41233846  0.80435898  0.49516415     1.10200
C821        C  0.07496701  0.89269274  0.52833889     1.10300
C822        C  0.01431717  0.86079299  0.94527148     1.10200
C823        C  0.50777305  0.85575536  0.59610295     1.10200
O824        O  0.19023451  0.75148517  0.95054627    -0.79500
O825        O  0.20103451  0.74368868  0.56369541    -0.79500
O826        O  0.27276051  0.74747357  0.97343675    -0.79500
O827        O  0.18636380  0.81895368  0.53667395    -0.79400
O828        O  0.22493360  0.72254804  0.50643105    -0.79500
O829        O  0.17134669  0.78256012  0.00211189    -0.79500
O830        O  0.21711170  0.79739540  0.58801817    -0.79500
O831        O  0.24108287  0.76499901  0.92190362    -0.79500
C832        C  0.20655360  0.74463164  0.92692747     1.10200
C833        C  0.19785276  0.76233846  0.58781389     1.10100
C834        C  0.24612182  0.72163027  0.48392235     1.10300
C835        C  0.16142695  0.79287689  0.51802510     1.10100
O836        O  0.22267094  0.85623868  0.97305372    -0.79500
O837        O  0.30164522  0.77900061  0.52479578    -0.79500
O838        O  0.29224663  0.84274488  0.93268202    -0.79500
O839        O  0.29041333  0.85052610  0.56238295    -0.79400
O840        O  0.27736021  0.79623744  0.58200732    -0.79500
O841        O  0.23419448  0.82173327  0.91740025    -0.79500
O842        O  0.25986779  0.87544367  0.51587523    -0.79400
O843        O  0.32573910  0.82595915  0.98643195    -0.79500
Co844      Co  0.20675817  0.80258962  0.96294278     1.51500
Co845      Co  0.24972674  0.76191449  0.54204034     1.51700
Co846      Co  0.28176991  0.79677245  0.95611889     1.51600
Co847      Co  0.23921238  0.83381034  0.54840683     1.51500
O848        O  0.24200378  0.79865465  0.51339037    -1.41400
C849        C  0.23794501  0.87884572  0.49575289     1.10200
C850        C  0.32461356  0.80855412  0.50931213     1.10300
C851        C  0.26855038  0.84052659  0.91072534     1.10200
C852        C  0.29889442  0.83079811  0.58017582     1.10200
C853        C  0.12016062  0.81487560  0.50174838    -0.15700
C854        C  0.12444275  0.78852894  0.51713910    -0.30900
H855        H  0.14346941  0.83739076  0.48861979     0.13300
H856        H  0.13937166  0.82581686  0.05065485     0.13900
C857        C  0.36407426  0.81980055  0.50997264    -0.15700
C858        C  0.37599328  0.80161070  0.49002468    -0.30900
H859        H  0.39191198  0.83625519  0.99511285     0.13300
H860        H  0.35683260  0.78103763  0.47149274     0.13900
C861        C  0.23851588  0.93321052  0.52208857    -0.15700
C862        C  0.23927171  0.91471867  0.49343928    -0.30900
H863        H  0.24975080  0.92616087  0.03920905     0.13300
H864        H  0.23837311  0.92497937  0.46776347     0.13900
C865        C  0.24951568  0.68858293  0.47868105    -0.15700
C866        C  0.23380362  0.65892918  0.49961126    -0.30900
H867        H  0.26976681  0.69099130  0.45979003     0.13300
H868        H  0.24642672  0.67977852  0.04336827     0.13900
C869        C  0.12276000  0.94589736  0.49701557    -0.15700
C870        C  0.10724995  0.93047126  0.52772733    -0.30900
H871        H  0.11140516  0.94827459  0.99915754     0.13300
H872        H  0.12250214  0.94237996  0.55185487     0.13900
C873        C  0.37190385  0.67552012  0.53366559    -0.15700
C874        C  0.40217902  0.68989823  0.51412332    -0.30900
H875        H  0.37010611  0.69160463  0.55498632     0.13300
H876        H  0.39672334  0.65865607  0.00163269     0.13900
C877        C  0.37923006  0.54619923  0.67332136    -0.17800
C878        C  0.36595700  0.54509234  0.64495659     0.06200
C879        C  0.34332516  0.54501550  0.61722200     0.08100
C880        C  0.32136041  0.54590813  0.59713880    -0.18700
C881        C  0.29080729  0.55256425  0.87659668    -0.17800
C882        C  0.30368771  0.55571471  0.84803121     0.06200
C883        C  0.31889249  0.55727016  0.81502480     0.08100
C884        C  0.33555841  0.55675704  0.78982860    -0.18700
C885        C  0.33232371  0.84862608  0.60037922    -0.17800
C886        C  0.35821710  0.86679234  0.61947862     0.06200
C887        C  0.38160063  0.88895041  0.64663363     0.08100
C888        C  0.39128489  0.90473482  0.67415875    -0.18700
C889        C  0.32541898  0.88684664  0.78635881    -0.17800
C890        C  0.30734256  0.87455455  0.81261769     0.06200
C891        C  0.29146660  0.86389995  0.84638810     0.08100
C892        C  0.28039844  0.85484080  0.87591271    -0.18700
C893        C  0.51321017  0.87895735  0.62639630    -0.17800
C894        C  0.51461878  0.89679665  0.65202300     0.06200
C895        C  0.00881867  0.91247276  0.68079713     0.08100
C896        C  0.00814047  0.92757902  0.70764243    -0.18700
C897        C  0.01051070  0.93227642  0.83763992    -0.17800
C898        C  0.01556813  0.92124546  0.86482051     0.06200
C899        C  0.01999495  0.90594617  0.89577396     0.08100
C900        C  0.02046035  0.88835783  0.92021215    -0.18700
C901        C  0.11653717  0.55653064  0.66898495    -0.17800
C902        C  0.13393432  0.56091515  0.64297864     0.06200
C903        C  0.16239613  0.56737995  0.61985614     0.08100
C904        C  0.18840611  0.57124524  0.60339266    -0.18700
C905        C  0.15893098  0.57374790  0.79205182    -0.17800
C906        C  0.17317054  0.57427354  0.81974297     0.06200
C907        C  0.18463246  0.57270637  0.85423238     0.08100
C908        C  0.19536176  0.57218902  0.88343911    -0.18700
C909        C  0.12387012  0.69109701  0.69968043    -0.17800
C910        C  0.13891035  0.70733067  0.67328294     0.06200
C911        C  0.15747212  0.72681056  0.64273644     0.08100
C912        C  0.17471492  0.74330041  0.61723650    -0.18700
C913        C  0.18407539  0.71695176  0.90223319    -0.17800
C914        C  0.16162167  0.69936103  0.88014207     0.06200
C915        C  0.13538900  0.68531469  0.85313451     0.08100
C916        C  0.11551954  0.67578460  0.82798674    -0.18700
C917        C  0.95698288  0.65939499  0.67715659    -0.17800
C918        C  0.46840839  0.67542558  0.64840258     0.06200
C919        C  0.46696536  0.69985628  0.62405698     0.08100
C920        C  0.47040173  0.72481753  0.60598449    -0.18700
C921        C  0.97220678  0.70512078  0.79908987    -0.17800
C922        C  0.97289348  0.72277710  0.82442501     0.06200
C923        C  0.97487808  0.74038125  0.85678728     0.08100
C924        C  0.97752963  0.75341056  0.88564812    -0.18700
C925        C  0.00321415  0.19266280  0.26062726     0.87200
C926        C  0.54005396  0.14882346  0.28219926    -0.53100
C927        C  0.53918227  0.14110837  0.24726635     0.10100
C928        C  0.99540235  0.13427524  0.22818052     0.21000
C929        C  0.00004031  0.19535857  0.22207445    -0.53800
C930        C  0.51377287  0.17977638  0.23180915     0.10200
C931        C  0.96891672  0.15721334  0.27053068    -0.53300
C932        C  0.96398065  0.12552633  0.25506576     0.10800
H933        H  0.56233701  0.15266635  0.29965935     0.15300
H934        H  0.99226128  0.10973206  0.21412981     0.01000
H935        H  0.00151862  0.21929328  0.20973801     0.15600
H936        H  0.94961396  0.15844712  0.28824887     0.15400
C937        C  0.63856331  0.19072059  0.25884936     0.87200
C938        C  0.62615832  0.15398365  0.27666945    -0.53100
C939        C  0.60417240  0.12280578  0.25706599     0.10100
C940        C  0.59357881  0.13242326  0.22205628     0.21000
C941        C  0.65544750  0.18829958  0.22497907    -0.53800
C942        C  0.63161294  0.15830771  0.20517289     0.10200
C943        C  0.60343967  0.19006003  0.24720306    -0.53300
C944        C  0.57715380  0.15720608  0.23188927     0.10800
H945        H  0.63656378  0.15425264  0.30252077     0.15300
H946        H  0.57477365  0.10832285  0.20552467     0.01000
H947        H  0.68284951  0.20908165  0.21657020     0.15600
H948        H  0.59658916  0.20982309  0.25793446     0.15400
C949        C  0.62874685  0.05492752  0.29336198     0.87200
C950        C  0.59143935  0.02059561  0.29249979    -0.53100
C951        C  0.56920884  0.01672381  0.26420690     0.10100
C952        C  0.58746432  0.05209087  0.24084292     0.21000
C953        C  0.64623288  0.05723224  0.25798389    -0.53800
C954        C  0.62482426  0.05582050  0.23038965     0.10200
C955        C  0.61953632  0.08493953  0.29426190    -0.53300
C956        C  0.59983410  0.08604484  0.26618994     0.10800
H957        H  0.58374931  0.00128383  0.31371195     0.15300
H958        H  0.57006347  0.05079170  0.21833247     0.01000
H959        H  0.67340905  0.06021499  0.25503827     0.15600
H960        H  0.63051527  0.10479380  0.31532355     0.15400
C961        C  0.50306099  0.41695959  0.26328295     0.87200
C962        C  0.96320216  0.41175360  0.24651274    -0.53100
C963        C  0.96918147  0.44406565  0.23185077     0.10100
C964        C  0.50678219  0.47007531  0.22513230     0.21000
C965        C  0.50571246  0.41067501  0.22483342    -0.53800
C966        C  0.50698230  0.43780161  0.20424379     0.10200
C967        C  0.53640553  0.45491813  0.27163168    -0.53300
C968        C  0.54004171  0.48328880  0.25111285     0.10800
H969        H  0.93777358  0.39295297  0.25987820     0.15300
H970        H  0.50777111  0.49198455  0.20843104     0.01000
H971        H  0.50549048  0.38644188  0.21459333     0.15600
H972        H  0.55629480  0.45759760  0.29127851     0.15400
C973        C  0.90092350  0.44520353  0.29210974     0.87200
C974        C  0.90883631  0.48392796  0.28959858    -0.53100
C975        C  0.91656299  0.49818187  0.25675558     0.10100
C976        C  0.92179657  0.47235253  0.23024271     0.21000
C977        C  0.87301607  0.42270898  0.26256206    -0.53800
C978        C  0.88370243  0.43682423  0.23008875     0.10200
C979        C  0.93748897  0.44959509  0.28251196    -0.53300
C980        C  0.94819919  0.46069939  0.24883099     0.10800
H981        H  0.90417724  0.49738796  0.31158877     0.15300
H982        H  0.93132600  0.48465605  0.20418841     0.01000
H983        H  0.84671632  0.39780876  0.26720415     0.15600
H984        H  0.95150382  0.43999943  0.29982491     0.15400
C985        C  0.87878045  0.05245370  0.30410700     0.87200
C986        C  0.91413102  0.08783580  0.29743901    -0.53100
C987        C  0.93191928  0.08862717  0.26711114     0.10100
C988        C  0.91159156  0.05015248  0.24750936     0.21000
C989        C  0.85496257  0.04418258  0.27088410    -0.53800
C990        C  0.87213795  0.04317277  0.24119615     0.10200
C991        C  0.89125392  0.02464803  0.30538603    -0.53300
C992        C  0.90499035  0.01980896  0.27498159     0.10800
H993        H  0.92391782  0.11005150  0.31633560     0.15300
H994        H  0.92558142  0.04915316  0.22347566     0.01000
H995        H  0.82690868  0.03937794  0.27092758     0.15600
H996        H  0.88599328  0.00757857  0.32814866     0.15400
O997        O  0.74778770  0.02239508  0.44565860    -0.79500
O998        O  0.80245963  0.05263804  0.07126643    -0.79500
O999        O  0.82001882  0.13116781  0.46981015    -0.79500
O1000       O  0.73274899  0.47497993  0.01465673    -0.79400
O1001       O  0.82970245  0.10402505  0.01950855    -0.79500
O1002       O  0.71337673  0.46750218  0.44696897    -0.79500
O1003       O  0.74651911  0.01133547  0.08898710    -0.79500
O1004       O  0.80020580  0.05940911  0.47348414    -0.79500
C1005       C  0.78298204  0.03802685  0.44823478     1.10200
C1006       C  0.78171359  0.02809706  0.09240631     1.10100
C1007       C  0.83245606  0.12562096  0.99558351     1.10300
C1008       C  0.76019367  0.47876707  0.99720591     1.10100
O1009       O  0.66933852  0.49711232  0.47510244    -0.79500
O1010       O  0.77169327  0.12240717  0.03518090    -0.79500
O1011       O  0.75343225  0.08365217  0.44390360    -0.79500
O1012       O  0.69700761  0.03650376  0.06350491    -0.79400
O1013       O  0.74963900  0.07454671  0.08957903    -0.79500
O1014       O  0.69876278  0.05072352  0.46590097    -0.79500
O1015       O  0.67610201  0.49190810  0.99324829    -0.79400
O1016       O  0.75859549  0.12479255  0.49917215    -0.79500
Co1017     Co  0.70939444  0.01271067  0.48262385     1.51500
Co1018     Co  0.78683712  0.08567988  0.05129497     1.51700
Co1019     Co  0.77977561  0.08990443  0.48932729     1.51600
Co1020     Co  0.71390752  0.00346647  0.04634228     1.51500
O1021       O  0.75276505  0.04449922  0.01719497    -1.41400
C1022       C  0.67486731  0.46863576  0.97190138     1.10200
C1023       C  0.74460605  0.11874387  0.01625361     1.10300
C1024       C  0.71895211  0.07047350  0.44175443     1.10200
C1025       C  0.71461615  0.05905357  0.08761267     1.10200
O1026       O  0.99483294  0.25298064  0.43269231    -0.79500
O1027       O  0.54087269  0.30921383  0.08259380    -0.79500
O1028       O  0.57479542  0.31865757  0.47176010    -0.79500
O1029       O  0.95757674  0.22677251  0.01627788    -0.79400
O1030       O  0.53881567  0.27318076  0.02570759    -0.79500
O1031       O  0.94809138  0.23029018  0.48941240    -0.79500
O1032       O  0.97260256  0.26869492  0.07501564    -0.79500
O1033       O  0.52565459  0.29392451  0.41866704    -0.79500
C1034       C  0.50997058  0.25914186  0.42158465     1.10200
C1035       C  0.99951033  0.26291661  0.07431710     1.10100
C1036       C  0.56643977  0.27908026  0.00807698     1.10300
C1037       C  0.92885227  0.21058720  0.99721703     1.10100
O1038       O  0.92180244  0.28085872  0.46748821    -0.79500
O1039       O  0.58539547  0.35223647  0.02095412    -0.79500
O1040       O  0.50347659  0.34739343  0.43452497    -0.79500
O1041       O  0.00037438  0.33537512  0.04118592    -0.79400
O1042       O  0.53334471  0.36350970  0.04046187    -0.79500
O1043       O  0.96664110  0.29805311  0.40992395    -0.79500
O1044       O  0.93157737  0.27671163  0.02361894    -0.79400
O1045       O  0.55388969  0.37408424  0.48903555    -0.79500
Co1046     Co  0.96057467  0.26762897  0.45248637     1.51500
Co1047     Co  0.53230493  0.31633682  0.03234526     1.51700
Co1048     Co  0.53651520  0.33205646  0.45589089     1.51600
Co1049     Co  0.98073591  0.28070993  0.02640841     1.51500
O1050       O  0.50486092  0.30706110  0.98664493    -1.41400
C1051       C  0.92257738  0.29380163  0.00250796     1.10200
C1052       C  0.59521678  0.37344077  0.99471389     1.10300
C1053       C  0.48147102  0.32685120  0.41095877     1.10200
C1054       C  0.03031371  0.35741999  0.05834181     1.10200
O1055       O  0.70394883  0.30198566  0.41919619    -0.79500
O1056       O  0.74933067  0.26467707  0.08296882    -0.79500
O1057       O  0.77627132  0.25158740  0.46741750    -0.79500
O1058       O  0.67498804  0.29994320  0.05036667    -0.79400
O1059       O  0.78574615  0.24564661  0.03871867    -0.79500
O1060       O  0.67573686  0.28189649  0.48549029    -0.79500
O1061       O  0.69943622  0.25020594  0.05104596    -0.79500
O1062       O  0.72849585  0.26732042  0.43105533    -0.79500
C1063       C  0.71013596  0.27672349  0.41010746     1.10200
C1064       C  0.71554587  0.24254921  0.07473246     1.10100
C1065       C  0.75981346  0.21705511  0.02373732     1.10300
C1066       C  0.66586179  0.29634879  0.01824669     1.10100
O1067       O  0.72683846  0.35525993  0.46774832    -0.79500
O1068       O  0.83419663  0.32129294  0.01983138    -0.79500
O1069       O  0.80159710  0.30794080  0.42214328    -0.79500
O1070       O  0.74388983  0.32131702  0.08638735    -0.79400
O1071       O  0.80012180  0.34307510  0.06749771    -0.79500
O1072       O  0.77652216  0.34174687  0.43752869    -0.79500
O1073       O  0.74173531  0.35920737  0.03085910    -0.79400
O1074       O  0.82404887  0.32452690  0.48927151    -0.79500
Co1075     Co  0.72613156  0.30766242  0.46369084     1.51500
Co1076     Co  0.79112666  0.29494549  0.05015124     1.51700
Co1077     Co  0.77545548  0.29860195  0.46395186     1.51600
Co1078     Co  0.72052976  0.30203267  0.03822897     1.51500
O1079       O  0.75805697  0.29529382  0.01178629    -1.41400
C1080       C  0.74502935  0.38145930  0.00603912     1.10200
C1081       C  0.83905577  0.30327587  0.99612332     1.10300
C1082       C  0.79974929  0.33695669  0.41930149     1.10200
C1083       C  0.77871846  0.34291703  0.09039205     1.10200
C1084       C  0.59744112  0.27572134  0.02375063    -0.15700
C1085       C  0.62839620  0.28639527  0.00511494    -0.30900
H1086       H  0.59719628  0.27021935  0.05136176     0.13300
H1087       H  0.62557619  0.30544631  0.53598442     0.13900
C1088       C  0.87605663  0.31058038  0.98841336    -0.15700
C1089       C  0.89375293  0.30196000  0.01234834    -0.30900
H1090       H  0.88089666  0.30943980  0.53736352     0.13300
H1091       H  0.88317479  0.29548096  0.03870086     0.13900
C1092       C  0.76656539  0.44724106  0.99429573    -0.15700
C1093       C  0.74890033  0.41752061  0.01481893    -0.30900
H1094       H  0.71449116  0.40503048  0.44141109     0.13300
H1095       H  0.73464631  0.41884193  0.03777598     0.13900
C1096       C  0.75761748  0.18140364  0.03161864    -0.15700
C1097       C  0.73672132  0.14956056  0.01399100    -0.30900
H1098       H  0.77759792  0.18274274  0.05069251     0.13300
H1099       H  0.75155777  0.19037536  0.54088892     0.13900
C1100       C  0.64162736  0.43218718  0.96884627    -0.15700
C1101       C  0.62790655  0.41074878  0.99709439    -0.30900
H1102       H  0.60228851  0.44236940  0.48002732     0.13300
H1103       H  0.64115064  0.42084552  0.02238021     0.13900
C1104       C  0.86810255  0.15695169  0.98504929    -0.15700
C1105       C  0.89921476  0.17244805  0.00476508    -0.30900
H1106       H  0.86695625  0.17080339  0.96165041     0.13300
H1107       H  0.87845373  0.19023207  0.54503918     0.13900
C1108       C  0.85375078  0.03519369  0.20739864    -0.17800
C1109       C  0.83655139  0.02903956  0.18025229     0.06200
C1110       C  0.81566642  0.02376223  0.14914761     0.08100
C1111       C  0.79875413  0.02267969  0.12296252    -0.18700
C1112       C  0.80386869  0.03684210  0.41925853    -0.17800
C1113       C  0.82177946  0.04071116  0.39350595     0.06200
C1114       C  0.84245544  0.04740154  0.36269471     0.08100
C1115       C  0.85945573  0.05186580  0.33617345    -0.18700
C1116       C  0.79530355  0.36518937  0.12173945    -0.17800
C1117       C  0.81433352  0.38335801  0.14651780     0.06200
C1118       C  0.83909114  0.40367288  0.17482908     0.08100
C1119       C  0.86015954  0.41972026  0.19922299    -0.18700
C1120       C  0.88700383  0.42849219  0.32603840    -0.17800
C1121       C  0.87015504  0.41116511  0.35098089     0.06200
C1122       C  0.84652618  0.38764880  0.37679680     0.08100
C1123       C  0.82501740  0.36540484  0.39682414    -0.18700
C1124       C  0.03152626  0.38605028  0.08019727    -0.17800
C1125       C  0.03028121  0.40704910  0.10106097     0.06200
C1126       C  0.50655545  0.42142811  0.13758037     0.08100
C1127       C  0.50712484  0.43347773  0.16658537    -0.18700
C1128       C  0.49960121  0.38878562  0.28828312    -0.17800
C1129       C  0.49382108  0.37115483  0.31472600     0.06200
C1130       C  0.48646855  0.35483223  0.34822812     0.08100
C1131       C  0.48202870  0.34224407  0.37726961    -0.18700
C1132       C  0.63807407  0.05900612  0.19512761    -0.17800
C1133       C  0.65384473  0.06187351  0.16804427     0.06200
C1134       C  0.67527212  0.06424058  0.13864916     0.08100
C1135       C  0.69400539  0.06403124  0.11490743    -0.18700
C1136       C  0.65187706  0.05771855  0.32332092    -0.17800
C1137       C  0.66926528  0.06311300  0.34991799     0.06200
C1138       C  0.68772833  0.06980851  0.38218351     0.08100
C1139       C  0.70244470  0.07283830  0.40995762    -0.18700
C1140       C  0.64128154  0.15485234  0.17026207    -0.17800
C1141       C  0.65553307  0.16358764  0.14227569     0.06200
C1142       C  0.67618462  0.18526550  0.11419123     0.08100
C1143       C  0.69450454  0.20982196  0.09449887    -0.18700
C1144       C  0.69726872  0.25948699  0.37609048    -0.17800
C1145       C  0.68779360  0.24891973  0.34624553     0.06200
C1146       C  0.67571303  0.23633139  0.31137916     0.08100
C1147       C  0.66199411  0.22066811  0.28391535    -0.18700
C1148       C  0.51660134  0.20323880  0.20300557    -0.17800
C1149       C  0.99724024  0.18516864  0.14018779     0.06200
C1150       C  0.99933144  0.21193618  0.11591056     0.08100
C1151       C  0.00037163  0.23594658  0.09743897    -0.18700
C1152       C  0.52034100  0.17761457  0.32759159    -0.17800
C1153       C  0.52377846  0.19526349  0.35340437     0.06200
C1154       C  0.52421822  0.21884060  0.37954897     0.08100
C1155       C  0.52029212  0.23863682  0.39943939    -0.18700
C1156       C  0.98732179  0.18960808  0.74898246     0.87200
C1157       C  0.51529767  0.16882532  0.77997616    -0.53100
C1158       C  0.52770057  0.15115706  0.75865629     0.10100
C1159       C  0.00472861  0.14464898  0.71947199     0.21000
C1160       C  0.00019624  0.20069968  0.71245690    -0.53800
C1161       C  0.50950018  0.17303738  0.70817946     0.10200
C1162       C  0.95509520  0.15049377  0.74552347    -0.53300
C1163       C  0.96445050  0.12535156  0.73357583     0.10800
H1164       H  0.52635350  0.17936016  0.80573191     0.15300
H1165       H  0.01170254  0.12561228  0.70598579     0.01000
H1166       H  0.00186832  0.22473793  0.70016260     0.15600
H1167       H  0.92906688  0.14236039  0.75836608     0.15400
C1168       C  0.62978917  0.19415088  0.78526091     0.87200
C1169       C  0.62956051  0.15836691  0.78845275    -0.53100
C1170       C  0.60868092  0.13196357  0.76390479     0.10100
C1171       C  0.58772780  0.14498497  0.73885176     0.21000
C1172       C  0.64110520  0.20701078  0.74812794    -0.53800
C1173       C  0.61915064  0.18169919  0.72355221     0.10200
C1174       C  0.58976588  0.18340911  0.78750945    -0.53300
C1175       C  0.56654392  0.15792068  0.76332507     0.10800
H1176       H  0.64504458  0.15516960  0.80944131     0.15300
H1177       H  0.57014744  0.12446997  0.71869566     0.01000
H1178       H  0.66397788  0.23414220  0.74176290     0.15600
H1179       H  0.58201611  0.19750780  0.80621274     0.15400
C1180       C  0.63728230  0.05823155  0.77611341     0.87200
C1181       C  0.59842699  0.02767261  0.78262916    -0.53100
C1182       C  0.57063796  0.02941012  0.76468047     0.10100
C1183       C  0.58659772  0.06216723  0.73874564     0.21000
C1184       C  0.64222164  0.05589407  0.73743458    -0.53800
C1185       C  0.61585111  0.05763791  0.71756305     0.10200
C1186       C  0.63667608  0.09364944  0.78123547    -0.53300
C1187       C  0.61055434  0.09691847  0.76198193     0.10800
H1188       H  0.59381063  0.00601588  0.80073202     0.15300
H1189       H  0.56527288  0.06365915  0.72263711     0.01000
H1190       H  0.66441961  0.05284194  0.72656941     0.15600
H1191       H  0.65727021  0.11469762  0.79821748     0.15400
C1192       C  0.49859788  0.41381144  0.76414333     0.87200
C1193       C  0.96880883  0.42395730  0.77099071    -0.53100
C1194       C  0.96633370  0.45087961  0.75307340     0.10100
C1195       C  0.49830489  0.46645757  0.72860189     0.21000
C1196       C  0.48977379  0.40394521  0.72606405    -0.53800
C1197       C  0.48977993  0.43131950  0.70697444     0.10200
C1198       C  0.53528463  0.44967086  0.76506470    -0.53300
C1199       C  0.53607605  0.47786736  0.74654476     0.10800
H1200       H  0.94857097  0.40574231  0.78967393     0.15300
H1201       H  0.49807679  0.48863683  0.71325191     0.01000
H1202       H  0.48544055  0.37828630  0.71481858     0.15600
H1203       H  0.55905802  0.45119870  0.77816449     0.15400
C1204       C  0.88258660  0.43504239  0.79903916     0.87200
C1205       C  0.88055944  0.46897560  0.79180652    -0.53100
C1206       C  0.89316774  0.48419997  0.75967936     0.10100
C1207       C  0.90953761  0.46367734  0.73854193     0.21000
C1208       C  0.86312152  0.40863179  0.76778633    -0.53800
C1209       C  0.87697713  0.42370881  0.73600428     0.10200
C1210       C  0.92327809  0.44883629  0.79603203    -0.53300
C1211       C  0.93756140  0.46044286  0.76354681     0.10800
H1212       H  0.86868005  0.47934606  0.81056855     0.15300
H1213       H  0.92116436  0.47626208  0.71300436     0.01000
H1214       H  0.84022091  0.38064813  0.77065455     0.15600
H1215       H  0.93853606  0.44535687  0.81728547     0.15400
C1216       C  0.90250772  0.06619016  0.79996390     0.87200
C1217       C  0.94137355  0.09294821  0.78786989    -0.53100
C1218       C  0.94687174  0.08938532  0.75300212     0.10100
C1219       C  0.91431858  0.05315371  0.73662520     0.21000
C1220       C  0.87551201  0.06682660  0.77255585    -0.53800
C1221       C  0.88184204  0.06013270  0.73930531     0.10200
C1222       C  0.90021514  0.02980622  0.79603329    -0.53300
C1223       C  0.90461418  0.02106773  0.76297635     0.10800
H1224       H  0.95952137  0.11753298  0.80310374     0.15300
H1225       H  0.91962703  0.04733200  0.70975224     0.01000
H1226       H  0.85446866  0.07374154  0.77882646     0.15600
H1227       H  0.89333505  0.01117050  0.81788185     0.15400
O1228       O  0.76564591  0.00283440  0.93150339    -0.79500
O1229       O  0.78398982  0.09501780  0.58961272    -0.79500
O1230       O  0.80354923  0.12145538  0.98088058    -0.79500
O1231       O  0.76112946  0.48537732  0.48188392    -0.79400
O1232       O  0.82107818  0.12268489  0.52673231    -0.79500
O1233       O  0.77827304  0.50673670  0.97816644    -0.79500
O1234       O  0.79614486  0.05319778  0.57309360    -0.79500
O1235       O  0.79552756  0.06147662  0.94952284    -0.79500
C1236       C  0.79352556  0.03527747  0.93025660     1.10200
C1237       C  0.80064093  0.07740097  0.59485157     1.10100
C1238       C  0.83785479  0.13868632  0.49817473     1.10300
C1239       C  0.73853818  0.46252565  0.46015310     1.10100
O1240       O  0.70380464  0.47524368  0.95615778    -0.79500
O1241       O  0.77553846  0.14535685  0.55321476    -0.79500
O1242       O  0.75314105  0.09060177  0.93021125    -0.79500
O1243       O  0.72066580  0.03749178  0.59254016    -0.79400
O1244       O  0.71438407  0.07700663  0.55925715    -0.79500
O1245       O  0.72070755  0.03073742  0.93902738    -0.79500
O1246       O  0.68694717  0.46429714  0.50572811    -0.79400
O1247       O  0.72753713  0.09121605  0.99584049    -0.79500
Co1248     Co  0.75160580  0.01657397  0.97319500     1.51500
Co1249     Co  0.76491821  0.09729373  0.54165571     1.51700
Co1250     Co  0.75786913  0.07282205  0.97421597     1.51600
Co1251     Co  0.74445619  0.01722837  0.56014567     1.51500
O1252       O  0.74582869  0.04780758  0.51896801    -1.41400
C1253       C  0.66153616  0.46962517  0.49371610     1.10200
C1254       C  0.76399569  0.14828258  0.52356952     1.10300
C1255       C  0.72857619  0.05902850  0.91993464     1.10200
C1256       C  0.70409729  0.05508816  0.58463412     1.10200
O1257       O  0.97010020  0.24564397  0.91696292    -0.79500
O1258       O  0.53955549  0.29706379  0.57610255    -0.79500
O1259       O  0.57153188  0.29485010  0.97910803    -0.79500
O1260       O  0.92938100  0.25609360  0.52668031    -0.79400
O1261       O  0.54542441  0.27510162  0.51063699    -0.79500
O1262       O  0.92285684  0.22767467  0.97334660    -0.79500
O1263       O  0.99585982  0.27203266  0.55350834    -0.79500
O1264       O  0.51143832  0.26190626  0.93192707    -0.79500
C1265       C  0.48482357  0.25579611  0.91176822     1.10200
C1266       C  0.02506322  0.28103582  0.57227519     1.10100
C1267       C  0.57231939  0.29204953  0.48974154     1.10300
C1268       C  0.92592700  0.22742534  0.51288646     1.10100
O1269       O  0.93651598  0.30199251  0.97263050    -0.79500
O1270       O  0.57234680  0.34917312  0.52782832    -0.79500
O1271       O  0.52555666  0.33369489  0.91458764    -0.79500
O1272       O  0.96252730  0.31231448  0.57176217    -0.79400
O1273       O  0.51006681  0.33997145  0.55702146    -0.79500
O1274       O  0.97235650  0.31149256  0.91078172    -0.79500
O1275       O  0.95068014  0.32705270  0.50532128    -0.79400
O1276       O  0.57696045  0.36340835  0.96643231    -0.79500
Co1277     Co  0.95357161  0.27301548  0.94637107     1.51500
Co1278     Co  0.52359667  0.30364905  0.53195617     1.51700
Co1279     Co  0.54338002  0.31236006  0.95086729     1.51600
Co1280     Co  0.97673618  0.30336874  0.52735682     1.51500
O1281       O  0.49445827  0.29736738  0.48792156    -1.41400
C1282       C  0.92313105  0.30741477  0.48525438     1.10200
C1283       C  0.57715354  0.37732380  0.51198401     1.10300
C1284       C  0.50451591  0.34718962  0.91409681     1.10200
C1285       C  0.99077564  0.34420929  0.57215129     1.10200
O1286       O  0.72928848  0.30902069  0.94003539    -0.79500
O1287       O  0.70381255  0.24942562  0.55616813    -0.79500
O1288       O  0.73903058  0.21986030  0.00109324    -0.79500
O1289       O  0.69443356  0.32684568  0.52453413    -0.79400
O1290       O  0.73080160  0.22792606  0.50347291    -0.79500
O1291       O  0.69032357  0.30294064  0.99476439    -0.79500
O1292       O  0.71838939  0.30324623  0.57918518    -0.79500
O1293       O  0.71086363  0.25231135  0.95529077    -0.79500
C1294       C  0.70973035  0.27474885  0.93430276     1.10200
C1295       C  0.69885465  0.26814758  0.57880464     1.10100
C1296       C  0.75251308  0.22412025  0.48394986     1.10300
C1297       C  0.66830368  0.30040331  0.50707339     1.10100
O1298       O  0.74365838  0.37173738  0.97457908    -0.79500
O1299       O  0.80695968  0.27991720  0.52752617    -0.79500
O1300       O  0.78738227  0.30821459  0.93892681    -0.79500
O1301       O  0.79515237  0.35410074  0.56081730    -0.79400
O1302       O  0.77797403  0.29950635  0.58221980    -0.79500
O1303       O  0.79966356  0.35642257  0.97212375    -0.79500
O1304       O  0.77207720  0.37890025  0.50560273    -0.79400
O1305       O  0.81212076  0.27553551  0.98139394    -0.79500
Co1306     Co  0.74792653  0.33067557  0.98743956     1.51500
Co1307     Co  0.75401500  0.26586111  0.53994862     1.51700
Co1308     Co  0.76081755  0.26494686  0.97169977     1.51600
Co1309     Co  0.74607653  0.33907486  0.53999988     1.51500
O1310       O  0.74985057  0.30232644  0.50772135    -1.41400
C1311       C  0.75343439  0.38320575  0.48209823     1.10200
C1312       C  0.83228356  0.30605934  0.50984175     1.10300
C1313       C  0.80566434  0.34287529  0.94513437     1.10200
C1314       C  0.79713596  0.33449945  0.58455060     1.10200
C1315       C  0.60318791  0.28354147  0.48695295    -0.15700
C1316       C  0.62982577  0.29436150  0.51200688    -0.30900
H1317       H  0.60862853  0.27631150  0.46142791     0.13300
H1318       H  0.62730264  0.29089133  0.97738936     0.13900
C1319       C  0.87099124  0.31229054  0.51200351    -0.15700
C1320       C  0.89035919  0.31301807  0.48349753    -0.30900
H1321       H  0.88415731  0.31360423  0.96129708     0.13300
H1322       H  0.87798199  0.31091864  0.45800951     0.13900
C1323       C  0.73771559  0.42723759  0.45548969    -0.15700
C1324       C  0.76105240  0.42054796  0.47426178    -0.30900
H1325       H  0.78231954  0.44646979  0.97231881     0.13300
H1326       H  0.78395192  0.44285438  0.48859600     0.13900
C1327       C  0.75518788  0.19077844  0.48624735    -0.15700
C1328       C  0.75514566  0.17736999  0.51790267    -0.30900
H1329       H  0.76256504  0.18071079  0.46338693     0.13300
H1330       H  0.71689540  0.14778526  0.99453117     0.13900
C1331       C  0.62237195  0.44127779  0.49734486    -0.15700
C1332       C  0.61227296  0.41188969  0.51741781    -0.30900
H1333       H  0.63047701  0.42160523  0.94302683     0.13300
H1334       H  0.63244183  0.41116312  0.53491290     0.13900
C1335       C  0.87751748  0.16555952  0.49724892    -0.15700
C1336       C  0.89360714  0.19176419  0.52167460    -0.30900
H1337       H  0.89117238  0.16905888  0.47244786     0.13300
H1338       H  0.90071773  0.15936894  0.02855306     0.13900
C1339       C  0.86397258  0.06560314  0.70916363    -0.17800
C1340       C  0.85060304  0.07172233  0.68373574     0.06200
C1341       C  0.83510514  0.07827712  0.65335623     0.08100
C1342       C  0.82069162  0.08093931  0.62685494    -0.18700
C1343       C  0.82381610  0.04385977  0.90774299    -0.17800
C1344       C  0.84922542  0.05453460  0.88792559     0.06200
C1345       C  0.87593754  0.06636418  0.86163838     0.08100
C1346       C  0.89300915  0.07124795  0.83527067    -0.18700
C1347       C  0.81804335  0.35229293  0.61632330    -0.17800
C1348       C  0.83298046  0.36812643  0.64351351     0.06200
C1349       C  0.84898785  0.38728063  0.67569577     0.08100
C1350       C  0.86195910  0.40377479  0.70308249    -0.18700
C1351       C  0.86812476  0.41842331  0.83322437    -0.17800
C1352       C  0.85742710  0.40390002  0.86113107     0.06200
C1353       C  0.84377811  0.38511459  0.89291071     0.08100
C1354       C  0.82901380  0.36703653  0.91837292    -0.18700
C1355       C  0.99179025  0.37271967  0.59389524    -0.17800
C1356       C  0.99227004  0.39555125  0.61346356     0.06200
C1357       C  0.48670138  0.41277925  0.64201473     0.08100
C1358       C  0.48737261  0.42702758  0.66959920    -0.18700
C1359       C  0.49888491  0.38676769  0.78756868    -0.17800
C1360       C  0.49924339  0.37471962  0.81576994     0.06200
C1361       C  0.50016213  0.36844050  0.85157686     0.08100
C1362       C  0.50175459  0.36239815  0.88189570    -0.18700
C1363       C  0.61778969  0.05531385  0.68029070    -0.17800
C1364       C  0.62994382  0.05320475  0.65255658     0.06200
C1365       C  0.65214482  0.05173827  0.62574465     0.08100
C1366       C  0.67478122  0.05211156  0.60620260    -0.18700
C1367       C  0.66385710  0.05595712  0.80026628    -0.17800
C1368       C  0.68025650  0.05453750  0.82588335     0.06200
C1369       C  0.69609253  0.05394832  0.85869611     0.08100
C1370       C  0.70955873  0.05499980  0.88709289    -0.18700
C1371       C  0.62541951  0.19149984  0.68708331    -0.17800
C1372       C  0.63683305  0.20705642  0.65960927     0.06200
C1373       C  0.65501766  0.22935956  0.63035015     0.08100
C1374       C  0.67352266  0.24852196  0.60660002    -0.18700
C1375       C  0.69047899  0.26186178  0.90181859    -0.17800
C1376       C  0.67828997  0.25137288  0.87296652     0.06200
C1377       C  0.66542881  0.23706333  0.83936922     0.08100
C1378       C  0.65201793  0.22064030  0.81260127    -0.18700
C1379       C  0.51512924  0.18168750  0.67195132    -0.17800
C1380       C  0.02584810  0.20326540  0.63430240     0.06200
C1381       C  0.02783782  0.22982882  0.61032717     0.08100
C1382       C  0.02716902  0.25348018  0.59295019    -0.18700
C1383       C  0.47739595  0.19709669  0.78934240    -0.17800
C1384       C  0.47469613  0.21022870  0.81639394     0.06200
C1385       C  0.47581028  0.22337715  0.85061194     0.08100
C1386       C  0.47912643  0.23587283  0.87964657    -0.18700
C1387       C  0.00451169  0.67549837  0.29107250     0.87200
C1388       C  0.52931097  0.68730294  0.28199250    -0.53100
C1389       C  0.52876609  0.66039180  0.26088167     0.10100
C1390       C  0.00163960  0.63888498  0.23512599     0.21000
C1391       C  0.01491596  0.69847851  0.25781774    -0.53800
C1392       C  0.50281769  0.68132212  0.21590120     0.10200
C1393       C  0.96699931  0.64317812  0.28435961    -0.53300
C1394       C  0.96362031  0.62279953  0.25499573     0.10800
H1395       H  0.55075817  0.70342825  0.30114797     0.15300
H1396       H  0.00026118  0.62306482  0.21141393     0.01000
H1397       H  0.02275387  0.72737045  0.25756635     0.15600
H1398       H  0.94588417  0.63655384  0.30358007     0.15400
C1399       C  0.60695682  0.65562326  0.30372178     0.87200
C1400       C  0.59332670  0.61585426  0.29510572    -0.53100
C1401       C  0.58428625  0.60680884  0.26055580     0.10100
C1402       C  0.57880789  0.63709007  0.24139303     0.21000
C1403       C  0.63319802  0.68004845  0.27442065    -0.53800
C1404       C  0.61838473  0.67063207  0.24153516     0.10200
C1405       C  0.57239046  0.65663685  0.29989108    -0.53300
C1406       C  0.55709203  0.64891200  0.26734162     0.10800
H1407       H  0.59851661  0.59893911  0.31304643     0.15300
H1408       H  0.56606059  0.62877197  0.21504123     0.01000
H1409       H  0.66107874  0.70272167  0.27948034     0.15600
H1410       H  0.56075261  0.66294284  0.32222842     0.15400
C1411       C  0.64190693  0.56190656  0.26430070     0.87200
C1412       C  0.60475169  0.52799626  0.27331010    -0.53100
C1413       C  0.57561427  0.52054803  0.25130202     0.10100
C1414       C  0.58681570  0.55137192  0.22382702     0.21000
C1415       C  0.64843418  0.55671403  0.22668812    -0.53800
C1416       C  0.62048959  0.55250070  0.20493378     0.10200
C1417       C  0.63559129  0.59413001  0.26306935    -0.53300
C1418       C  0.60422582  0.58811142  0.24536315     0.10800
H1419       H  0.60318499  0.51068184  0.29473542     0.15300
H1420       H  0.56430943  0.54763978  0.20582536     0.01000
H1421       H  0.67411622  0.55921686  0.21760187     0.15600
H1422       H  0.65227979  0.61837292  0.27930903     0.15400
C1423       C  0.49726048  0.91425685  0.27240928     0.87200
C1424       C  0.97358957  0.95005604  0.29500259    -0.53100
C1425       C  0.96527097  0.95738863  0.26267265     0.10100
C1426       C  0.49851815  0.96670373  0.23510179     0.21000
C1427       C  0.49141560  0.90468425  0.23406887    -0.53800
C1428       C  0.49257990  0.93193795  0.21390432     0.10200
C1429       C  0.53331452  0.94970487  0.27472177    -0.53300
C1430       C  0.53502974  0.97899521  0.25740833     0.10800
H1431       H  0.95509778  0.94201983  0.31707168     0.15300
H1432       H  0.49908782  0.98877909  0.21892984     0.01000
H1433       H  0.48730555  0.87881711  0.22358855     0.15600
H1434       H  0.55601451  0.95034135  0.28908449     0.15400
C1435       C  0.86173548  0.91360979  0.27499092     0.87200
C1436       C  0.86951988  0.95154619  0.28619553    -0.53100
C1437       C  0.89544596  0.98074220  0.26696387     0.10100
C1438       C  0.91089341  0.96789101  0.23713789     0.21000
C1439       C  0.85018658  0.91034568  0.23700623    -0.53800
C1440       C  0.87590921  0.93849247  0.21707647     0.10200
C1441       C  0.89905104  0.91617128  0.27409017    -0.53300
C1442       C  0.92569550  0.94524274  0.25557089     0.10800
H1443       H  0.85370872  0.95391264  0.30717094     0.15300
H1444       H  0.93166180  0.99057071  0.22087760     0.01000
H1445       H  0.82464344  0.88749916  0.22652390     0.15600
H1446       H  0.90446734  0.89742769  0.28898106     0.15400
C1447       C  0.86096327  0.54802130  0.26090752     0.87200
C1448       C  0.89574403  0.58503900  0.26448203    -0.53100
C1449       C  0.92595100  0.58960111  0.24645986     0.10100
C1450       C  0.91597336  0.55536464  0.22286742     0.21000
C1451       C  0.85179170  0.54419781  0.22250522    -0.53800
C1452       C  0.88020737  0.54776155  0.20221669     0.10200
C1453       C  0.87200263  0.51955335  0.26767593    -0.53300
C1454       C  0.90122157  0.52292926  0.24870051     0.10800
H1455       H  0.89511178  0.60604022  0.28032823     0.15300
H1456       H  0.93906139  0.55822716  0.20663119     0.01000
H1457       H  0.82508364  0.53831579  0.21216990     0.15600
H1458       H  0.85678938  0.49773623  0.28627128     0.15400
O1459       O  0.75281522  0.53028373  0.41024202    -0.79500
O1460       O  0.80524093  0.56519535  0.04681289    -0.79500
O1461       O  0.82820856  0.63645971  0.46018696    -0.79500
O1462       O  0.72710639  0.96450564  0.03299144    -0.79400
O1463       O  0.82674751  0.61379405  0.99536313    -0.79500
O1464       O  0.71631449  0.97010089  0.49407928    -0.79500
O1465       O  0.75220773  0.52308751  0.06861779    -0.79500
O1466       O  0.80551693  0.56386214  0.44014156    -0.79500
C1467       C  0.78783211  0.54558020  0.41294827     1.10200
C1468       C  0.78736281  0.53932281  0.06752863     1.10100
C1469       C  0.82908874  0.63713450  0.97371202     1.10300
C1470       C  0.75531649  0.96676387  0.01806107     1.10100
O1471       O  0.66856688  0.99771662  0.51575180    -0.79500
O1472       O  0.76802773  0.63038290  0.01360865    -0.79500
O1473       O  0.76399798  0.59569569  0.42086320    -0.79500
O1474       O  0.69687451  0.54171015  0.04473346    -0.79400
O1475       O  0.74952056  0.58349088  0.06859039    -0.79500
O1476       O  0.70685634  0.55862903  0.43510316    -0.79500
O1477       O  0.67846509  0.99211113  0.00796024    -0.79400
O1478       O  0.76169480  0.62126178  0.48654525    -0.79500
Co1479     Co  0.71203725  0.51527597  0.44448916     1.51500
Co1480     Co  0.78577728  0.59552257  0.02892788     1.51700
Co1481     Co  0.78437320  0.58982508  0.46649204     1.51600
Co1482     Co  0.71618265  0.51082559  0.02817182     1.51500
O1483       O  0.75134847  0.55292612  0.99651235    -1.41400
C1484       C  0.67428280  0.96782505  0.98647040     1.10200
C1485       C  0.74095490  0.62559646  0.99414467     1.10300
C1486       C  0.72985277  0.58157430  0.41418338     1.10200
C1487       C  0.71428339  0.56627671  0.06726362     1.10200
O1488       O  0.97376266  0.77984957  0.42257645    -0.79500
O1489       O  0.53461959  0.81119943  0.08380744    -0.79500
O1490       O  0.57522673  0.84735996  0.48065759    -0.79500
O1491       O  0.94937990  0.72620034  0.01723983    -0.79400
O1492       O  0.57756496  0.81537681  0.03088312    -0.79500
O1493       O  0.96073244  0.74470597  0.48475221    -0.79500
O1494       O  0.00681027  0.75772363  0.06292221    -0.79500
O1495       O  0.51504421  0.79657288  0.44366700    -0.79500
C1496       C  0.48810186  0.77515030  0.42266919     1.10200
C1497       C  0.02714116  0.77664773  0.08770389     1.10100
C1498       C  0.57163259  0.78505200  0.01704087     1.10300
C1499       C  0.92327463  0.72055418  0.99672746     1.10100
O1500       O  0.93071018  0.78971650  0.46752799    -0.79500
O1501       O  0.56896887  0.87373557  0.99938354    -0.79500
O1502       O  0.53997458  0.86836599  0.43507223    -0.79500
O1503       O  0.97803530  0.80595145  0.08931377    -0.79400
O1504       O  0.51507520  0.86013930  0.05119722    -0.79500
O1505       O  0.99826422  0.84805164  0.45049442    -0.79500
O1506       O  0.91826570  0.76708697  0.04708526    -0.79400
O1507       O  0.54092639  0.88686125  0.50423250    -0.79500
Co1508     Co  0.98150995  0.79594813  0.46986330     1.51500
Co1509     Co  0.54489186  0.83810206  0.03815809     1.51700
Co1510     Co  0.52463334  0.84143033  0.47677232     1.51600
Co1511     Co  0.96588538  0.76627901  0.05155401     1.51500
O1512       O  0.49909516  0.80072694  0.00675390    -1.41400
C1513       C  0.91357456  0.79297589  0.03684555     1.10200
C1514       C  0.59295071  0.87100033  0.98132204     1.10300
C1515       C  0.50688825  0.85755163  0.42609735     1.10200
C1516       C  0.99354053  0.84128624  0.08847123     1.10200
O1517       O  0.70455172  0.78886309  0.43557754    -0.79500
O1518       O  0.75073876  0.76042785  0.09322946    -0.79500
O1519       O  0.76528523  0.73720225  0.45984530    -0.79500
O1520       O  0.69355117  0.82104100  0.04074853    -0.79400
O1521       O  0.72474091  0.72636184  0.02997453    -0.79500
O1522       O  0.68466406  0.82594942  0.48098541    -0.79500
O1523       O  0.70966044  0.77514564  0.07616467    -0.79500
O1524       O  0.70355810  0.74310097  0.46533175    -0.79500
C1525       C  0.69084591  0.75454043  0.44170086     1.10200
C1526       C  0.72039418  0.75939033  0.09854826     1.10100
C1527       C  0.74087917  0.71526942  0.00977748     1.10300
C1528       C  0.66376984  0.79424029  0.02979820     1.10100
O1529       O  0.76062722  0.87730820  0.49616012    -0.79500
O1530       O  0.80164194  0.77779756  0.03998539    -0.79500
O1531       O  0.76700528  0.79284489  0.42893203    -0.79500
O1532       O  0.75185879  0.84988784  0.08360706    -0.79400
O1533       O  0.78952734  0.83064365  0.06623594    -0.79500
O1534       O  0.78286474  0.84783996  0.44554504    -0.79500
O1535       O  0.76429087  0.86614112  0.01493276    -0.79400
O1536       O  0.81317041  0.80405592  0.48734798    -0.79500
Co1537     Co  0.73434185  0.83337104  0.46691185     1.51500
Co1538     Co  0.75361297  0.77772941  0.04628460     1.51700
Co1539     Co  0.75586946  0.77330224  0.47769869     1.51600
Co1540     Co  0.74023002  0.82042853  0.04278429     1.51500
O1541       O  0.74139926  0.79283436  0.00001146    -1.41400
C1542       C  0.74373070  0.87235780  0.99498136     1.10200
C1543       C  0.82721212  0.80159089  0.02117561     1.10300
C1544       C  0.78312850  0.82669580  0.42254859     1.10200
C1545       C  0.78342350  0.85288922  0.08434023     1.10200
C1546       C  0.59812530  0.77233035  0.02129079    -0.15700
C1547       C  0.62931523  0.79266600  0.03941992    -0.30900
H1548       H  0.59560436  0.75085647  0.00367706     0.13300
H1549       H  0.60030553  0.77395102  0.51363020     0.13900
C1550       C  0.86625206  0.81029691  0.02385103    -0.15700
C1551       C  0.87722002  0.79041865  0.04252806    -0.30900
H1552       H  0.88838006  0.82507609  0.53329930     0.13300
H1553       H  0.85734855  0.76836867  0.05886153     0.13900
C1554       C  0.76078283  0.93443186  0.01889118    -0.15700
C1555       C  0.74945715  0.91023434  0.99188497    -0.30900
H1556       H  0.74313600  0.92681179  0.47534583     0.13300
H1557       H  0.73848704  0.91622012  0.96866108     0.13900
C1558       C  0.73680615  0.67873430  0.01585565    -0.15700
C1559       C  0.73311313  0.65592905  0.98973304    -0.30900
H1560       H  0.74009362  0.67187071  0.04237992     0.13300
H1561       H  0.75587853  0.67986642  0.54260443     0.13900
C1562       C  0.63646030  0.93725636  0.98065806    -0.15700
C1563       C  0.62926739  0.90318349  0.97357102    -0.30900
H1564       H  0.62679432  0.92502588  0.56694747     0.13300
H1565       H  0.65144907  0.89844854  0.96580745     0.13900
C1566       C  0.86338933  0.67333615  0.97090748    -0.15700
C1567       C  0.89387192  0.68200935  0.98996890    -0.30900
H1568       H  0.86194201  0.69459622  0.95620922     0.13300
H1569       H  0.90390388  0.68321250  0.46283496     0.13900
C1570       C  0.87345987  0.54176115  0.16534994    -0.17800
C1571       C  0.85648847  0.53565137  0.13827179     0.06200
C1572       C  0.83047576  0.53074117  0.11201570     0.08100
C1573       C  0.80841027  0.53107053  0.09180408    -0.18700
C1574       C  0.80656605  0.54551998  0.38171656    -0.17800
C1575       C  0.81464368  0.54479440  0.35165439     0.06200
C1576       C  0.82206727  0.54408139  0.31572469     0.08100
C1577       C  0.83370933  0.54462736  0.28685727    -0.18700
C1578       C  0.81269688  0.88195761  0.10414631    -0.17800
C1579       C  0.83538127  0.90472846  0.12363389     0.06200
C1580       C  0.85764242  0.92646085  0.15158250     0.08100
C1581       C  0.87043568  0.93742511  0.18015152    -0.18700
C1582       C  0.83647733  0.88509654  0.29971557    -0.17800
C1583       C  0.82200819  0.86780326  0.32588305     0.06200
C1584       C  0.80896700  0.85210089  0.35933277     0.08100
C1585       C  0.79828725  0.84042915  0.38838865    -0.18700
C1586       C  0.99120027  0.86101529  0.11865328    -0.17800
C1587       C  0.99246265  0.87754305  0.14520955     0.06200
C1588       C  0.48552251  0.91029952  0.14876101     0.08100
C1589       C  0.48855651  0.92561654  0.17650732    -0.18700
C1590       C  0.49625571  0.88697393  0.29665465    -0.17800
C1591       C  0.49548315  0.87430853  0.32488770     0.06200
C1592       C  0.49613134  0.86814936  0.36085272     0.08100
C1593       C  0.49928954  0.86491725  0.39161943    -0.18700
C1594       C  0.62764311  0.55605684  0.16807008    -0.17800
C1595       C  0.64464639  0.56211284  0.14130676     0.06200
C1596       C  0.67052251  0.56896684  0.11466058     0.08100
C1597       C  0.69271456  0.57134185  0.09336074    -0.18700
C1598       C  0.67111726  0.56882436  0.29017723    -0.17800
C1599       C  0.68938621  0.57563586  0.31670683     0.06200
C1600       C  0.70587543  0.58249576  0.35046594     0.08100
C1601       C  0.71753292  0.58516224  0.37995512    -0.18700
C1602       C  0.63907230  0.68952322  0.21003136    -0.17800
C1603       C  0.65703548  0.70524596  0.18420191     0.06200
C1604       C  0.67871178  0.72379290  0.15398426     0.08100
C1605       C  0.69741295  0.73968942  0.12855254    -0.18700
C1606       C  0.66459520  0.72791192  0.41807027    -0.17800
C1607       C  0.64831526  0.70561597  0.39548700     0.06200
C1608       C  0.63406274  0.68270433  0.36610114     0.08100
C1609       C  0.62271145  0.66748640  0.33854150    -0.18700
C1610       C  0.51544145  0.69250202  0.18115313    -0.17800
C1611       C  0.02717173  0.71586419  0.16912714     0.06200
C1612       C  0.03219293  0.73945639  0.14075911     0.08100
C1613       C  0.03285389  0.75835548  0.11676400    -0.18700
C1614       C  0.49984164  0.72192391  0.30216614    -0.17800
C1615       C  0.49970569  0.73763471  0.32860899     0.06200
C1616       C  0.49813270  0.75155765  0.36192257     0.08100
C1617       C  0.49502457  0.76200886  0.39044291    -0.18700
C1618       C  0.97378619  0.67992991  0.77301263     0.87200
C1619       C  0.53768066  0.68573691  0.76052970    -0.53100
C1620       C  0.53429081  0.65666617  0.74079287     0.10100
C1621       C  0.97773081  0.63355397  0.73023496     0.21000
C1622       C  0.96089187  0.68146387  0.73625601    -0.53800
C1623       C  0.48398884  0.66042675  0.70961497     0.10200
C1624       C  0.95117590  0.63952418  0.78381264    -0.53300
C1625       C  0.94984760  0.61439014  0.75979445     0.10800
H1626       H  0.56316572  0.70559890  0.77375444     0.15300
H1627       H  0.98001561  0.61446903  0.71175799     0.01000
H1628       H  0.95191496  0.70055299  0.72842217     0.15600
H1629       H  0.93448289  0.63194393  0.80703710     0.15400
C1630       C  0.61009486  0.64841713  0.78758014     0.87200
C1631       C  0.59506629  0.60826855  0.77845706    -0.53100
C1632       C  0.58597395  0.59957863  0.74381038     0.10100
C1633       C  0.58286073  0.63097211  0.72457479     0.21000
C1634       C  0.63742000  0.67186851  0.75871188    -0.53800
C1635       C  0.62316441  0.66303919  0.72566109     0.10200
C1636       C  0.57664402  0.65196182  0.78254990    -0.53300
C1637       C  0.56171032  0.64416831  0.74951379     0.10800
H1638       H  0.59962530  0.59068500  0.79605963     0.15300
H1639       H  0.57082575  0.62331224  0.69790555     0.01000
H1640       H  0.66580558  0.69331184  0.76411355     0.15600
H1641       H  0.56614460  0.66103964  0.80382832     0.15400
C1642       C  0.63893176  0.55145358  0.75045016     0.87200
C1643       C  0.60137301  0.52191451  0.76392558    -0.53100
C1644       C  0.57172640  0.51360549  0.74271017     0.10100
C1645       C  0.58269055  0.53971042  0.71138226     0.21000
C1646       C  0.64149060  0.53930005  0.71406042    -0.53800
C1647       C  0.61274568  0.53401162  0.69294391     0.10200
C1648       C  0.63612452  0.58553609  0.74465327    -0.53300
C1649       C  0.60403901  0.57929174  0.72803065     0.10800
H1650       H  0.59927121  0.50761852  0.78798730     0.15300
H1651       H  0.55936302  0.53490727  0.69396134     0.01000
H1652       H  0.66445529  0.53629213  0.70531788     0.15600
H1653       H  0.65447117  0.61094123  0.75873319     0.15400
C1654       C  0.50466064  0.94615995  0.80654696     0.87200
C1655       C  0.96654526  0.94043430  0.80050120    -0.53100
C1656       C  0.96021810  0.95341635  0.77006459     0.10100
C1657       C  0.49908537  0.97484486  0.74884690     0.21000
C1658       C  0.51346998  0.93071201  0.77381520    -0.53800
C1659       C  0.50947474  0.94487994  0.74331400     0.10200
C1660       C  0.52768754  0.98763135  0.80613887    -0.53300
C1661       C  0.53055288  0.00298793  0.77424854     0.10800
H1662       H  0.94697903  0.92777348  0.82133716     0.15300
H1663       H  0.49662183  0.98732925  0.72434224     0.01000
H1664       H  0.52078834  0.90934234  0.77475448     0.15600
H1665       H  0.54601942  0.00270196  0.82793289     0.15400
C1666       C  0.85453077  0.91671937  0.77398850     0.87200
C1667       C  0.86081528  0.95546119  0.77514775    -0.53100
C1668       C  0.88975894  0.98095878  0.75559462     0.10100
C1669       C  0.90866542  0.96372338  0.73444331     0.21000
C1670       C  0.84791894  0.90614404  0.73571548    -0.53800
C1671       C  0.87581909  0.93065513  0.71478930     0.10200
C1672       C  0.89190502  0.92063969  0.78219836    -0.53300
C1673       C  0.92120371  0.94552673  0.76237606     0.10800
H1674       H  0.84432289  0.96242424  0.79178137     0.15300
H1675       H  0.93124427  0.98363724  0.71754903     0.01000
H1676       H  0.82291913  0.88219023  0.72579384     0.15600
H1677       H  0.89358694  0.90339168  0.80209178     0.15400
C1678       C  0.84654797  0.54155620  0.75562946     0.87200
C1679       C  0.88244022  0.57365454  0.76946005    -0.53100
C1680       C  0.91401294  0.57848704  0.75437510     0.10100
C1681       C  0.90555484  0.54791685  0.72663811     0.21000
C1682       C  0.84679010  0.54715413  0.71696024    -0.53800
C1683       C  0.87728242  0.55022179  0.70121204     0.10200
C1684       C  0.85021459  0.50796805  0.75988196    -0.53300
C1685       C  0.88190342  0.51092394  0.74660759     0.10800
H1686       H  0.88157312  0.59261474  0.78804337     0.15300
H1687       H  0.93042114  0.55048566  0.71389888     0.01000
H1688       H  0.82481019  0.54859367  0.70309318     0.15600
H1689       H  0.82983239  0.48428303  0.77428925     0.15400
O1690       O  0.75816699  0.50858167  0.91095511    -0.79500
O1691       O  0.77752822  0.56820982  0.56378919    -0.79500
O1692       O  0.80022566  0.63087407  0.95740234    -0.79500
O1693       O  0.76412783  0.99327002  0.53076428    -0.79400
O1694       O  0.81628302  0.61306582  0.51319080    -0.79500
O1695       O  0.77620927  0.99467417  0.99999398    -0.79500
O1696       O  0.79128620  0.53153920  0.53632851    -0.79500
O1697       O  0.79083979  0.56810132  0.92443230    -0.79500
C1698       C  0.78233648  0.54099531  0.90304145     1.10200
C1699       C  0.79719591  0.55325339  0.56123069     1.10100
C1700       C  0.83746468  0.63884772  0.49209930     1.10300
C1701       C  0.74336584  0.96937098  0.50853419     1.10100
O1702       O  0.70266730  0.96876429  0.97388639    -0.79500
O1703       O  0.76544408  0.62337202  0.54459239    -0.79500
O1704       O  0.74816020  0.59630327  0.90874817    -0.79500
O1705       O  0.71544060  0.51217699  0.55844841    -0.79400
O1706       O  0.70672400  0.55459602  0.53430577    -0.79500
O1707       O  0.71475252  0.53703093  0.92161682    -0.79500
O1708       O  0.69228646  0.97581894  0.55347239    -0.79400
O1709       O  0.72460990  0.59775570  0.97421927    -0.79500
Co1710     Co  0.74927136  0.52497110  0.95311798     1.51500
Co1711     Co  0.75893288  0.58152773  0.52063018     1.51700
Co1712     Co  0.75532757  0.58042433  0.95230199     1.51600
Co1713     Co  0.74015012  0.50089991  0.51871607     1.51500
O1714       O  0.74631252  0.54121799  0.48598421    -1.41400
C1715       C  0.66447152  0.97518275  0.53934635     1.10200
C1716       C  0.76094308  0.63592021  0.51626033     1.10300
C1717       C  0.72265475  0.56424288  0.90076494     1.10200
C1718       C  0.69742181  0.52913996  0.55608389     1.10200
O1719       O  0.96658134  0.78350460  0.93274598    -0.79500
O1720       O  0.50666556  0.76625754  0.56394532    -0.79500
O1721       O  0.54610824  0.76853999  0.99511435    -0.79500
O1722       O  0.92186884  0.74962732  0.51989554    -0.79400
O1723       O  0.55676946  0.79933687  0.51326971    -0.79500
O1724       O  0.91978966  0.74731847  0.98583115    -0.79500
O1725       O  0.95774815  0.76941039  0.58274341    -0.79500
O1726       O  0.51519245  0.76380654  0.93463766    -0.79500
C1727       C  0.49288711  0.76548361  0.91407964     1.10200
C1728       C  0.97448929  0.75130518  0.58283189     1.10100
C1729       C  0.58011280  0.82213360  0.49247782     1.10300
C1730       C  0.92984986  0.73029392  0.49969923     1.10100
O1731       O  0.93818200  0.81805539  0.01858278    -0.79500
O1732       O  0.57245394  0.87145757  0.54030750    -0.79500
O1733       O  0.53597048  0.83833504  0.93644506    -0.79500
O1734       O  0.98090650  0.84612610  0.57150701    -0.79400
O1735       O  0.52518841  0.83817717  0.59350728    -0.79500
O1736       O  0.99065266  0.85355634  0.96858472    -0.79500
O1737       O  0.94448665  0.82840306  0.50975841    -0.79400
O1738       O  0.58536795  0.83953247  0.97040528    -0.79500
Co1739     Co  0.95751421  0.80164570  0.97993476     1.51500
Co1740     Co  0.53782469  0.81789782  0.55058434     1.51700
Co1741     Co  0.53233094  0.80003334  0.97116534     1.51600
Co1742     Co  0.95406785  0.79968859  0.54425122     1.51500
O1743       O  0.49673887  0.81348256  0.51903617    -1.41400
C1744       C  0.92293645  0.81006613  0.48525334     1.10200
C1745       C  0.56772417  0.89589574  0.52530534     1.10300
C1746       C  0.52099522  0.85815393  0.93883853     1.10200
C1747       C  0.00346993  0.85073349  0.59572151     1.10200
O1748       O  0.68366449  0.74106155  0.95531516    -0.79500
O1749       O  0.75356533  0.77001800  0.57693877    -0.79500
O1750       O  0.76490592  0.73713063  0.98805641    -0.79500
O1751       O  0.66491606  0.78029524  0.51778824    -0.79400
O1752       O  0.75135738  0.73468634  0.51531620    -0.79500
O1753       O  0.66458284  0.77204370  0.00815366    -0.79500
O1754       O  0.69751649  0.75361667  0.56073467    -0.79500
O1755       O  0.73652866  0.75381017  0.93129978    -0.79500
C1756       C  0.70142910  0.73454752  0.93276998     1.10200
C1757       C  0.71894149  0.75109443  0.58213121     1.10100
C1758       C  0.75671984  0.71989897  0.48797835     1.10300
C1759       C  0.65854123  0.80025254  0.49790385     1.10100
O1760       O  0.71556059  0.84574230  0.97965029    -0.79500
O1761       O  0.81726787  0.78749324  0.54123541    -0.79500
O1762       O  0.78755365  0.83150464  0.94183203    -0.79500
O1763       O  0.75394000  0.83013372  0.58023795    -0.79400
O1764       O  0.80098944  0.84180637  0.54666157    -0.79500
O1765       O  0.73019092  0.81244774  0.92514627    -0.79500
O1766       O  0.71969953  0.85500887  0.53865200    -0.79400
O1767       O  0.81876046  0.81684483  0.99764071    -0.79500
Co1768     Co  0.70064238  0.79232942  0.96958075     1.51500
Co1769     Co  0.77532805  0.79067154  0.52930765     1.51700
Co1770     Co  0.77543586  0.78590022  0.96715560     1.51600
Co1771     Co  0.71029359  0.80377735  0.54677634     1.51500
O1772       O  0.74018238  0.80326275  0.50550363    -1.41400
C1773       C  0.74434846  0.88191216  0.52147588     1.10200
C1774       C  0.83244206  0.80116969  0.51247979     1.10300
C1775       C  0.76484960  0.83114811  0.91974202     1.10200
C1776       C  0.78829278  0.84895987  0.57326746     1.10200
C1777       C  0.61417138  0.82129975  0.48424313    -0.15700
C1778       C  0.62127695  0.79609619  0.49811693    -0.30900
H1779       H  0.63522388  0.84384911  0.46916792     0.13300
H1780       H  0.63173491  0.81432093  0.05670431     0.13900
C1781       C  0.87209804  0.81481448  0.50941796    -0.15700
C1782       C  0.88663542  0.80754760  0.48162013    -0.30900
H1783       H  0.88586554  0.83134411  0.00652464     0.13300
H1784       H  0.86947067  0.79391548  0.45883277     0.13900
C1785       C  0.74803013  0.93791950  0.50171581    -0.15700
C1786       C  0.75039845  0.91865251  0.52824412    -0.30900
H1787       H  0.76791405  0.92706436  0.04362958     0.13300
H1788       H  0.75021098  0.92711507  0.55497590     0.13900
C1789       C  0.75322810  0.68349984  0.48820071    -0.15700
C1790       C  0.75513967  0.66755331  0.51748407    -0.30900
H1791       H  0.75383644  0.67175665  0.46314091     0.13300
H1792       H  0.72748438  0.66166064  0.96353776     0.13900
C1793       C  0.62756381  0.94432329  0.54775409    -0.15700
C1794       C  0.59749047  0.93482494  0.52777282    -0.30900
H1795       H  0.61411004  0.94146939  0.98903835     0.13300
H1796       H  0.59787171  0.95382235  0.50846496     0.13900
C1797       C  0.87057328  0.67178234  0.50668685    -0.15700
C1798       C  0.90109206  0.69272895  0.48833142    -0.30900
H1799       H  0.86874626  0.68015594  0.53302679     0.13300
H1800       H  0.89530181  0.66063532  0.00451956     0.13900
C1801       C  0.87994406  0.55583953  0.66411192    -0.17800
C1802       C  0.86914736  0.55921769  0.63584815     0.06200
C1803       C  0.84740899  0.56074997  0.60808159     0.08100
C1804       C  0.82526384  0.55935743  0.58676246    -0.18700
C1805       C  0.79612945  0.54729592  0.86860585    -0.17800
C1806       C  0.79950929  0.54665444  0.83770934     0.06200
C1807       C  0.80328563  0.54216609  0.80212847     0.08100
C1808       C  0.81597780  0.53940204  0.77523171    -0.18700
C1809       C  0.81378026  0.87614822  0.59764549    -0.17800
C1810       C  0.83526278  0.89603477  0.61983474     0.06200
C1811       C  0.85768170  0.91505607  0.64905608     0.08100
C1812       C  0.87106325  0.92609493  0.67759179    -0.18700
C1813       C  0.82606196  0.89236885  0.79948777    -0.17800
C1814       C  0.80822112  0.87729529  0.82534947     0.06200
C1815       C  0.79118661  0.86220203  0.85807155     0.08100
C1816       C  0.77851312  0.84920228  0.88640154    -0.18700
C1817       C  0.00721687  0.87427026  0.62519017    -0.17800
C1818       C  0.00857359  0.89259054  0.65037932     0.06200
C1819       C  0.51417286  0.91611411  0.68263541     0.08100
C1820       C  0.51266289  0.93074084  0.70950256    -0.18700
C1821       C  0.51036681  0.93142498  0.83875640    -0.17800
C1822       C  0.51855307  0.92075491  0.86433291     0.06200
C1823       C  0.52749925  0.90566163  0.89260509     0.08100
C1824       C  0.52968185  0.88716665  0.91509371    -0.18700
C1825       C  0.61357198  0.52531837  0.65667167    -0.17800
C1826       C  0.62482589  0.52090701  0.62925347     0.06200
C1827       C  0.64606318  0.51949803  0.60136436     0.08100
C1828       C  0.66818146  0.52174995  0.58003189    -0.18700
C1829       C  0.66773191  0.55693799  0.77590123    -0.17800
C1830       C  0.68260698  0.55800853  0.80330364     0.06200
C1831       C  0.69407433  0.55762877  0.83797912     0.08100
C1832       C  0.70428880  0.55859297  0.86765010    -0.18700
C1833       C  0.64525105  0.68069708  0.69476993    -0.17800
C1834       C  0.66430163  0.69561032  0.66945433     0.06200
C1835       C  0.68635313  0.71367347  0.63960447     0.08100
C1836       C  0.70336492  0.72991658  0.61372380    -0.18700
C1837       C  0.68108895  0.70781615  0.90567444    -0.17800
C1838       C  0.66349119  0.68922165  0.88084510     0.06200
C1839       C  0.64313876  0.67135332  0.85011719     0.08100
C1840       C  0.62699553  0.65923048  0.82267346    -0.18700
C1841       C  0.47382624  0.66224283  0.67404705    -0.17800
C1842       C  0.95399752  0.67087008  0.64945935     0.06200
C1843       C  0.95515975  0.69387000  0.62242783     0.08100
C1844       C  0.96104224  0.71866730  0.60314906    -0.18700
C1845       C  0.50409223  0.71174351  0.79404039    -0.17800
C1846       C  0.50147977  0.72830140  0.81877737     0.06200
C1847       C  0.49588734  0.74295808  0.85016822     0.08100
C1848       C  0.49188774  0.75332937  0.87850027    -0.18700
loop_ 
_geom_bond_atom_site_label_1 
_geom_bond_atom_site_label_2 
_geom_bond_distance 
_geom_bond_site_symmetry_2 
_ccdc_geom_bond_type 
C1            C7   1.492       .  S
C1            C5   1.544       .  S
C1          C926   1.503       .  S
C1         C1152   1.459       .  S
C2          C925   1.504       .  S
C2            H9   1.087       .  S
C2            C3   1.373       .  D
C3          C928   1.570   1_455  S
C3           C20   1.526       .  S
C4            C8   1.572       .  S
C4          C927   1.569       .  S
C4          C930   1.533       .  S
C4           H10   1.110       .  S
C5           H11   1.087       .  S
C5          C930   1.360       .  D
C6          C928   1.594       .  S
C6          C929   1.366   1_655  D
C6          C224   1.454       .  S
C7           H12   1.087       .  S
C7            C8   1.376       .  D
C8           C63   1.508       .  S
C13          C14   1.494       .  S
C13          C19   1.506       .  S
C13          C17   1.541       .  S
C13         C223   1.464       .  S
C14          H21   1.080       .  S
C14          C15   1.372       .  D
C15          C16   1.583       .  S
C15          C32   1.505       .  S
C16          C20   1.574       .  S
C16          C18   1.537       .  S
C16          H22   1.109       .  S
C17          H23   1.087       .  S
C17          C18   1.364       .  D
C18         C216   1.454       .  S
C19          H24   1.088       .  S
C19          C20   1.374       .  D
C25          C26   1.518       .  S
C25          C31   1.530       .  S
C25          C29   1.506       .  S
C25         C212   1.477       .  S
C26          H33   1.088   1_545  S
C26          C27   1.381       .  D
C27          C28   1.562       .  S
C27         C506   1.520   1_545  S
C28          C32   1.533       .  S
C28          C30   1.571       .  S
C28          H34   1.109       .  S
C29          H35   1.087       .  S
C29          C30   1.368       .  D
C30         C208   1.440       .  S
C31          H36   1.081       .  S
C31          C32   1.374       .  D
C37          C43   1.524   1_655  S
C37          C41   1.510   1_655  S
C37         C962   1.510       .  S
C37         C204   1.485       .  S
C38         C961   1.503       .  S
C38          H45   1.088       .  S
C38          C39   1.370       .  D
C39         C964   1.570       .  S
C39          C56   1.522       .  S
C40          C44   1.547       .  S
C40          C42   1.577       .  S
C40         C963   1.571   1_455  S
C40          H46   1.110       .  S
C41          H47   1.087       .  S
C41          C42   1.373       .  D
C42         C203   1.446       .  S
C43          H48   1.079       .  S
C43          C44   1.377       .  D
C44         C489   1.521       .  S
C49          C50   1.501       .  S
C49          C55   1.494       .  S
C49          C53   1.548       .  S
C49         C196   1.472       .  S
C50          H57   1.088       .  S
C50          C51   1.375       .  D
C51          C52   1.578       .  S
C51         C530   1.508       .  S
C52          C56   1.579       .  S
C52          C54   1.536       .  S
C52          H58   1.110       .  S
C53          H59   1.087       .  S
C53          C54   1.364       .  D
C54         C195   1.460       .  S
C55          H60   1.087       .  S
C55          C56   1.376       .  D
C61          C62   1.509       .  S
C61          C67   1.533       .  S
C61          C65   1.517       .  S
C61         C191   1.473       .  S
C62          H69   1.088       .  S
C62          C63   1.376       .  D
C63          C64   1.573       .  S
C64          C68   1.540       .  S
C64          C66   1.556       .  S
C64          H70   1.110       .  S
C65          H71   1.087       .  S
C65          C66   1.365       .  D
C66         C184   1.438       .  S
C67          H72   1.086       .  S
C67          C68   1.376       .  D
C68         C513   1.511   1_545  S
O73          C81   1.265       .  A
O73         Co93   1.978       .  S
O74          C82   1.261       .  A
O74         Co94   1.958       .  S
O75         C314   1.278       .  A
O75         Co95   2.030       .  S
O76          C84   1.277   1_554  A
O76        Co558   2.031       .  S
O77          C83   1.262   1_554  A
O77         Co94   2.001       .  S
O78         C315   1.240       .  A
O78        Co555   1.964       .  S
O79          C82   1.275       .  A
O79         Co96   2.025       .  S
O80          C81   1.267       .  A
O80         Co95   2.007       .  S
C81         C188   1.439       .  S
C82         C187   1.434       .  S
C83         O306   1.265       .  A
C83         C180   1.493       .  S
C84         O309   1.268       .  A
C84         C168   1.489       .  S
O85         C329   1.268       .  A
O85        Co555   1.888       .  S
O86          C99   1.278       .  A
O86         Co94   2.022       .  S
O87         C100   1.267       .  A
O87         Co95   1.984       .  S
O88         C101   1.252       .  A
O88         Co96   1.951       .  S
O89         C101   1.272       .  A
O89         Co94   2.035       .  S
O90         C100   1.266       .  A
O90         Co93   2.005       .  S
O91          C98   1.255   1_554  A
O91        Co558   1.973       .  S
O92         C330   1.260       .  A
O92         Co95   1.975       .  S
Co93        O540   1.965   1_545  S
Co93        O547   2.037   1_545  S
Co93        O328   2.051       .  S
Co94         O97   2.056       .  S
Co95        O328   2.057       .  S
Co96        O538   2.043   1_545  S
Co96        O553   1.962       .  S
Co96         O97   2.023       .  S
O97        Co324   2.037   1_554  S
O97        Co326   1.984   1_554  S
C98         O316   1.266       .  A
C98         C176   1.476       .  S
C99         O323   1.273   1_554  A
C99         C173   1.488       .  S
C100        C215   1.445       .  S
C101        C211   1.438       .  S
O102       C1034   1.259       .  A
O102       Co122   1.955       .  S
O103       C1035   1.293   1_455  A
O103       Co123   2.115       .  S
O104        C343   1.284       .  A
O104       Co124   2.064       .  S
O105        C113   1.277   1_554  A
O105       Co125   1.998       .  S
O106        C112   1.253   1_554  A
O106       Co123   1.945       .  S
O107        C344   1.254       .  A
O107       Co122   1.977       .  S
O108        C111   1.291       .  A
O108       Co125   1.965       .  S
O109        C110   1.265       .  A
O109       Co124   1.990       .  S
C110       O1026   1.268   1_455  A
C110        C231   1.431       .  S
C111       O1027   1.301       .  A
C111        C227   1.443       .  S
C112        O335   1.265       .  A
C112        C160   1.478       .  S
C113        O338   1.277       .  A
C113        C181   1.500       .  S
O114        C358   1.284       .  A
O114       Co122   2.055       .  S
O115        C128   1.316       .  A
O115       Co123   2.116   1_556  S
O116        C129   1.267   1_455  A
O116       Co124   1.986       .  S
O117        C130   1.251       .  A
O117       Co125   2.063       .  S
O118       C1054   1.270       .  A
O118       Co123   1.912       .  S
O119       C1053   1.269       .  A
O119       Co122   2.021       .  S
O120        C127   1.271       .  A
O120       Co125   2.016       .  S
O121        C359   1.254       .  A
O121       Co124   1.960       .  S
Co122      O1281   2.045       .  S
Co123       O126   2.083   1_454  S
Co124       O357   2.048       .  S
Co125      O1050   2.085   1_554  S
O126      Co1277   2.051       .  S
O126       Co355   1.888   1_655  S
O126      Co1049   2.006   1_556  S
C127        O345   1.258   1_554  A
C127        C165   1.463       .  S
C128        O352   1.277       .  A
C128        C177   1.473       .  S
C129       O1043   1.269       .  A
C129        C207   1.453       .  S
C130       O1042   1.232       .  A
C130        C200   1.456       .  S
O131        C139   1.267       .  A
O131       Co151   1.903       .  S
O132        C140   1.276       .  A
O132       Co152   2.031       .  S
O133        C372   1.263       .  A
O133       Co153   2.012       .  S
O134        C142   1.268       .  A
O134       Co154   1.882       .  S
O135        C141   1.275       .  A
O135       Co152   2.030       .  S
O136        C373   1.270       .  A
O136       Co151   1.990       .  S
O137        C140   1.267       .  A
O137       Co154   1.977       .  S
O138        C139   1.290       .  A
O138       Co153   2.082       .  S
C139        C220   1.429       .  S
C140        C219   1.448       .  S
C141        O364   1.264       .  A
C141        C172   1.485       .  S
C142        O367   1.294       .  A
C142        C161   1.469       .  S
O143        C387   1.262       .  A
O143       Co151   2.010       .  S
O144        C157   1.258       .  A
O144       Co152   1.953       .  S
O145        C158   1.266       .  A
O145       Co153   1.909       .  S
O146        C159   1.269       .  A
O146       Co154   2.033       .  S
O147        C159   1.256       .  A
O147       Co152   1.978       .  S
O148        C158   1.290       .  A
O148       Co151   2.090       .  S
O149        C156   1.298       .  A
O149       Co154   2.117       .  S
O150        C388   1.267       .  A
O150       Co153   1.979       .  S
Co151       O386   2.044       .  S
Co152       O155   2.039       .  S
Co153       O386   2.031       .  S
Co154       O155   2.011       .  S
O155       Co382   2.006   1_554  S
O155       Co384   2.044   1_554  S
C156        O374   1.267   1_554  A
C156        C169   1.488       .  S
C157        O381   1.269   1_554  A
C157        C164   1.448       .  S
C158        C199   1.437       .  S
C159        C192   1.453       .  S
C160        H162   1.086       .  S
C160        C161   1.353   1_556  D
C161        H394   1.087       .  S
H163        C392   1.086       .  S
C164        H397   1.086   1_554  S
C164        C165   1.344       .  D
C165        H167   1.087       .  S
H166        C395   1.086       .  S
C168        H401   1.087       .  S
C168        C169   1.349   1_556  D
C169        H171   1.087       .  S
H170        C399   1.087       .  S
C172        H174   1.086       .  S
C172        C173   1.352       .  D
C173        H406   1.086   1_554  S
H175        C404   1.087       .  S
C176        H409   1.087   1_556  S
C176        C177   1.339       .  D
C177        H179   1.087       .  S
H178        C407   1.088       .  S
C180        H182   1.087       .  S
C180        C181   1.357       .  D
C181        H414   1.086   1_556  S
H183        C412   1.088       .  S
C184        C185   1.204       .  T
C185        C186   1.410       .  S
C186        C187   1.205       .  T
C188        C189   1.209       .  T
C189        C190   1.417       .  S
C190        C191   1.209       .  T
C192        C193   1.217       .  T
C193        C194   1.430       .  S
C194        C195   1.217       .  T
C196        C197   1.207       .  T
C197        C198   1.414       .  S
C198        C199   1.207       .  T
C200        C201   1.218       .  T
C201       C1126   1.432       .  S
C202        C203   1.210       .  T
C202       C1125   1.421       .  S
C204        C205   1.217       .  T
C205        C206   1.431       .  S
C206        C207   1.217       .  T
C208        C209   1.207       .  T
C209        C210   1.415       .  S
C210        C211   1.208       .  T
C212        C213   1.212       .  T
C213        C214   1.423       .  S
C214        C215   1.213       .  T
C216        C217   1.213       .  T
C217        C218   1.424       .  S
C218        C219   1.213       .  T
C220        C221   1.202       .  T
C221        C222   1.406       .  S
C222        C223   1.203       .  T
C224       C1149   1.218       .  T
C225       C1148   1.212       .  T
C225        C226   1.422       .  S
C226        C227   1.211       .  T
C228        C925   1.464       .  S
C228        C229   1.205       .  T
C229        C230   1.411       .  S
C230        C231   1.205       .  T
C232       C1157   1.526       .  S
C232        C238   1.508       .  S
C232        C236   1.512       .  S
C232       C1383   1.471       .  S
C233       C1156   1.527   1_455  S
C233        H240   1.082       .  S
C233        C234   1.370       .  D
C234       C1159   1.542       .  S
C234        C251   1.504       .  S
C235       C1158   1.543       .  S
C235        C239   1.564       .  S
C235       C1161   1.555       .  S
C235        H241   1.110       .  S
C236        H242   1.087       .  S
C236       C1161   1.367       .  D
C237       C1159   1.575       .  S
C237       C1160   1.362       .  D
C237        C455   1.444       .  S
C238        H243   1.088       .  S
C238        C239   1.380       .  D
C239        C294   1.509       .  S
C244        C245   1.510       .  S
C244        C250   1.510       .  S
C244        C248   1.535       .  S
C244        C454   1.475       .  S
C245        H252   1.085       .  S
C245        C246   1.375       .  D
C246        C247   1.564       .  S
C246        C263   1.514       .  S
C247        C251   1.562       .  S
C247        C249   1.535       .  S
C247        H253   1.110       .  S
C248        H254   1.087       .  S
C248        C249   1.364       .  D
C249        C447   1.440       .  S
C250        H255   1.082       .  S
C250        C251   1.374       .  D
C256        C257   1.509       .  S
C256        C262   1.511       .  S
C256        C260   1.506       .  S
C256        C443   1.474       .  S
C257        H264   1.087       .  S
C257        C258   1.380       .  D
C258        C259   1.561       .  S
C258        C737   1.525       .  S
C259        C263   1.566       .  S
C259        C261   1.579       .  S
C259        H265   1.110       .  S
C260        H266   1.087       .  S
C260        C261   1.368       .  D
C261        C439   1.449       .  S
C262        H267   1.084       .  S
C262        C263   1.372       .  D
C268       C1193   1.505   1_455  S
C268        C274   1.509       .  S
C268        C272   1.512       .  S
C268        C435   1.467       .  S
C269       C1192   1.499       .  S
C269        H276   1.087       .  S
C269        C270   1.369       .  D
C270       C1195   1.563       .  S
C270        C287   1.511       .  S
C271       C1194   1.554       .  S
C271        C275   1.557   1_655  S
C271        C273   1.567       .  S
C271        H277   1.110       .  S
C272        H278   1.087       .  S
C272        C273   1.369   1_455  D
C273        C434   1.443       .  S
C274        H279   1.082       .  S
C274        C275   1.371       .  D
C275        C720   1.504       .  S
C280        C281   1.499       .  S
C280        C286   1.516       .  S
C280        C284   1.544       .  S
C280        C427   1.483       .  S
C281        H288   1.084       .  S
C281        C282   1.376       .  D
C282        C283   1.569       .  S
C282        C761   1.505       .  S
C283        C287   1.559       .  S
C283        C285   1.536       .  S
C283        H289   1.110       .  S
C284        H290   1.087       .  S
C284        C285   1.367       .  D
C285        C426   1.451       .  S
C286        H291   1.088       .  S
C286        C287   1.378       .  D
C292        C293   1.507       .  S
C292        C298   1.485       .  S
C292        C296   1.551       .  S
C292        C422   1.458       .  S
C293        H300   1.089       .  S
C293        C294   1.377       .  D
C294        C295   1.574       .  S
C295        C299   1.575       .  S
C295        C297   1.533       .  S
C295        H301   1.110       .  S
C296        H302   1.087       .  S
C296        C297   1.364       .  D
C297        C415   1.460       .  S
C298        H303   1.088   1_545  S
C298        C299   1.370       .  D
C299        C744   1.503   1_545  S
O304        C312   1.270       .  A
O304       Co324   1.884       .  S
O305        C313   1.265       .  A
O305       Co325   1.920       .  S
O306       Co326   2.007       .  S
O307        C315   1.251       .  A
O307       Co789   1.985       .  S
O308        C314   1.268       .  A
O308       Co325   1.973       .  S
O309       Co786   1.981       .  S
O310        C313   1.293       .  A
O310       Co327   2.101       .  S
O311        C312   1.296       .  A
O311       Co326   2.100       .  S
C312        C419   1.425       .  S
C313        C418   1.454       .  S
C314        C411   1.473       .  S
C315        C399   1.468       .  S
O316       Co786   2.005       .  S
O317        C330   1.264       .  A
O317       Co325   2.007       .  S
O318        C331   1.261       .  A
O318       Co326   1.895       .  S
O319        C332   1.268       .  A
O319       Co327   1.922       .  S
O320        C332   1.291       .  A
O320       Co325   2.097       .  S
O321        C331   1.295       .  A
O321       Co324   2.110       .  S
O322        C329   1.292       .  A
O322       Co789   2.055       .  S
O323       Co326   1.987       .  S
Co324       O771   1.978   1_545  S
Co324       O778   2.030   1_545  S
Co325       O328   2.025       .  S
Co327       O769   2.029   1_545  S
Co327       O784   1.963       .  S
Co327       O328   2.043       .  S
C329        C407   1.457       .  S
C330        C404   1.475       .  S
C331        C446   1.442       .  S
C332        C442   1.451       .  S
O333       C1265   1.266       .  A
O333       Co353   2.004       .  S
O334       C1266   1.267       .  A
O334       Co354   1.912       .  S
O335       Co355   2.006       .  S
O336        C344   1.260       .  A
O336       Co356   2.010       .  S
O337        C343   1.269       .  A
O337       Co354   1.991       .  S
O338       Co353   2.021       .  S
O339        C342   1.293       .  A
O339       Co356   2.097       .  S
O340        C341   1.279   1_455  A
O340       Co355   2.013       .  S
C341       O1257   1.273       .  A
C341        C462   1.431       .  S
C342       O1258   1.265       .  A
C342        C458   1.428       .  S
C343        C391   1.511       .  S
C344        C412   1.481       .  S
O345       Co353   1.952       .  S
O346        C359   1.260       .  A
O346       Co354   1.989       .  S
O347        C360   1.254   1_455  A
O347       Co355   2.018       .  S
O348        C361   1.265       .  A
O348       Co356   1.905       .  S
O349       C1285   1.290   1_455  A
O349       Co354   2.102       .  S
O350       C1284   1.265       .  A
O350       Co353   1.971       .  S
O351        C358   1.270       .  A
O351       Co356   1.981       .  S
O352       Co355   1.868       .  S
Co353      O1050   2.030       .  S
Co354       O357   2.039       .  S
Co356      O1281   2.028       .  S
O357      Co1046   2.051   1_455  S
O357      Co1280   2.029   1_455  S
C358        C396   1.498       .  S
C359        C408   1.453       .  S
C360       O1274   1.245       .  A
C360        C438   1.434   1_655  S
C361       O1273   1.294       .  A
C361        C431   1.444       .  S
O362        C370   1.265       .  A
O362       Co382   2.016       .  S
O363        C371   1.259       .  A
O363       Co383   1.964       .  S
O364       Co384   1.972   1_554  S
O365        C373   1.284       .  A
O365       Co385   2.062       .  S
O366        C372   1.255       .  A
O366       Co383   1.970       .  S
O367       Co382   2.107   1_554  S
O368        C371   1.270       .  A
O368       Co385   2.015       .  S
O369        C370   1.257       .  A
O369       Co384   1.975       .  S
C370        C451   1.439       .  S
C371        C450   1.433       .  S
C372        C403   1.477       .  S
C373        C392   1.510       .  S
O374       Co382   1.903       .  S
O375        C388   1.282       .  A
O375       Co383   2.051       .  S
O376        C389   1.278       .  A
O376       Co384   2.038       .  S
O377        C390   1.258       .  A
O377       Co385   1.969       .  S
O378        C390   1.269       .  A
O378       Co383   2.025       .  S
O379        C389   1.268       .  A
O379       Co382   1.974       .  S
O380        C387   1.249       .  A
O380       Co385   1.959       .  S
O381       Co384   2.007       .  S
Co383       O386   2.055       .  S
Co385       O386   2.043       .  S
C387        C400   1.465       .  S
C388        C395   1.498       .  S
C389        C430   1.448       .  S
C390        C423   1.445       .  S
C391        H393   1.086       .  S
C391        C392   1.364       .  D
C395        C396   1.360       .  D
C396        H398   1.086       .  S
C399        C400   1.334       .  D
C400        H402   1.088       .  S
C403        H405   1.087       .  S
C403        C404   1.348       .  D
C407        C408   1.342       .  D
C408        H410   1.088       .  S
C411        H413   1.086       .  S
C411        C412   1.349       .  D
C415        C416   1.217       .  T
C416        C417   1.430       .  S
C417        C418   1.217       .  T
C419        C420   1.200       .  T
C420        C421   1.402       .  S
C421        C422   1.200       .  T
C423        C424   1.212       .  T
C424        C425   1.422       .  S
C425        C426   1.212       .  T
C427        C428   1.214       .  T
C428        C429   1.425       .  S
C429        C430   1.214       .  T
C431        C432   1.210       .  T
C432       C1357   1.419       .  S
C433        C434   1.208       .  T
C433       C1356   1.417       .  S
C435        C436   1.207       .  T
C436        C437   1.414       .  S
C437        C438   1.207       .  T
C439        C440   1.213       .  T
C440        C441   1.426       .  S
C441        C442   1.215       .  T
C443        C444   1.210       .  T
C444        C445   1.419       .  S
C445        C446   1.210       .  T
C447        C448   1.205       .  T
C448        C449   1.411       .  S
C449        C450   1.205       .  T
C451        C452   1.208       .  T
C452        C453   1.416       .  S
C453        C454   1.209       .  T
C455       C1380   1.210       .  T
C456       C1379   1.201       .  T
C456        C457   1.405       .  S
C457        C458   1.202       .  T
C459       C1156   1.461       .  S
C459        C460   1.203       .  T
C460        C461   1.408       .  S
C461        C462   1.204       .  T
C463       C1388   1.503       .  S
C463        C469   1.511       .  S
C463        C467   1.514       .  S
C463       C1614   1.479       .  S
C464       C1387   1.507       .  S
C464        H471   1.087       .  S
C464        C465   1.373       .  D
C465       C1390   1.571       .  S
C465        C482   1.518       .  S
C466       C1389   1.553       .  S
C466        C470   1.567       .  S
C466       C1392   1.554       .  S
C466        H472   1.110       .  S
C467        H473   1.087       .  S
C467       C1392   1.369       .  D
C468       C1390   1.544       .  S
C468       C1391   1.362       .  D
C468        C686   1.449       .  S
C469        H474   1.073       .  S
C469        C470   1.378       .  D
C470        C525   1.519       .  S
C475        C476   1.512       .  S
C475        C481   1.504       .  S
C475        C479   1.505       .  S
C475        C685   1.478       .  S
C476        H483   1.086       .  S
C476        C477   1.383       .  D
C477        C478   1.555       .  S
C477        C494   1.518       .  S
C478        C482   1.558       .  S
C478        C480   1.576       .  S
C478        H484   1.110       .  S
C479        H485   1.087       .  S
C479        C480   1.370       .  D
C480        C678   1.443       .  S
C481        H486   1.085       .  S
C481        C482   1.375       .  D
C487        C488   1.491       .  S
C487        C493   1.503       .  S
C487        C491   1.540       .  S
C487        C674   1.458       .  S
C488        H495   1.079       .  S
C488        C489   1.373       .  D
C489        C490   1.593       .  S
C490        C494   1.577       .  S
C490        C492   1.548       .  S
C490        H496   1.110       .  S
C491        H497   1.087       .  S
C491        C492   1.365       .  D
C492        C670   1.462       .  S
C493        H498   1.088       .  S
C493        C494   1.365       .  D
C499       C1424   1.486   1_455  S
C499        C505   1.507       .  S
C499        C503   1.555       .  S
C499        C666   1.456       .  S
C500       C1423   1.505       .  S
C500        H507   1.086       .  S
C500        C501   1.371       .  D
C501       C1426   1.572       .  S
C501        C518   1.527       .  S
C502       C1425   1.575       .  S
C502        C506   1.571   1_655  S
C502        C504   1.530   1_655  S
C502        H508   1.110       .  S
C503        H509   1.086       .  S
C503        C504   1.368       .  D
C504        C665   1.461   1_455  S
C505        H510   1.088   1_565  S
C505        C506   1.375       .  D
C511        C512   1.496       .  S
C511        C517   1.505       .  S
C511        C515   1.517       .  S
C511        C658   1.464       .  S
C512        H519   1.083       .  S
C512        C513   1.371       .  D
C513        C514   1.576       .  S
C514        C518   1.569       .  S
C514        C516   1.562       .  S
C514        H520   1.110       .  S
C515        H521   1.087       .  S
C515        C516   1.363       .  D
C516        C657   1.449       .  S
C517        H522   1.086       .  S
C517        C518   1.378       .  D
C523        C524   1.512       .  S
C523        C529   1.505       .  S
C523        C527   1.509       .  S
C523        C653   1.467       .  S
C524        H531   1.072       .  S
C524        C525   1.376       .  D
C525        C526   1.566       .  S
C526        C530   1.557       .  S
C526        C528   1.568       .  S
C526        H532   1.110       .  S
C527        H533   1.087       .  S
C527        C528   1.367       .  D
C528        C646   1.443       .  S
C529        H534   1.087       .  S
C529        C530   1.374       .  D
O535        C543   1.266       .  A
O535       Co555   1.999       .  S
O536        C544   1.256       .  A
O536       Co556   1.959       .  S
O537        C776   1.271       .  A
O537       Co557   1.982       .  S
O538        C546   1.279       .  A
O539        C545   1.258       .  A
O539       Co556   1.987   1_556  S
O540        C777   1.256       .  A
O541        C544   1.274       .  A
O541       Co558   2.037       .  S
O542        C543   1.270       .  A
O542       Co557   1.990       .  S
C543        C650   1.434       .  S
C544        C649   1.442       .  S
C545        O768   1.255       .  A
C545        C642   1.471       .  S
C546        O771   1.267   1_554  A
C546        C630   1.490       .  S
O547        C791   1.280       .  A
O548        C561   1.280       .  A
O548       Co556   2.035       .  S
O549        C562   1.265       .  A
O549       Co557   2.009       .  S
O550        C563   1.257       .  A
O550       Co558   1.963       .  S
O551        C563   1.276       .  A
O551       Co556   2.050       .  S
O552        C562   1.255       .  A
O552       Co555   1.969       .  S
O553        C560   1.249   1_544  A
O554        C792   1.265       .  A
O554       Co557   2.005       .  S
Co555       O790   1.941       .  S
Co556       O559   2.044       .  S
Co557       O790   2.096       .  S
Co558       O559   2.052       .  S
O559       Co786   2.025   1_554  S
O559       Co788   2.019   1_554  S
C560        O778   1.267       .  A
C560        C638   1.477       .  S
C561        O785   1.271   1_554  A
C561        C635   1.487       .  S
C562        C677   1.421       .  S
C563        C673   1.455       .  S
O564       C1496   1.262       .  A
O564       Co584   1.893       .  S
O565       C1497   1.262       .  A
O565       Co585   2.031       .  S
O566        C805   1.260       .  A
O566       Co586   2.004       .  S
O567        C575   1.260   1_554  A
O567       Co587   1.954       .  S
O568        C574   1.280       .  A
O568       Co585   2.045       .  S
O569        C806   1.261       .  A
O569       Co584   1.957       .  S
O570        C573   1.244       .  A
O570       Co587   1.951       .  S
O571        C572   1.290       .  A
O571       Co586   2.092       .  S
C572       O1488   1.262   1_455  A
C572        C693   1.430       .  S
C573       O1489   1.258       .  A
C573        C689   1.428       .  S
C574        O797   1.253   1_554  A
C574        C622   1.470       .  S
C575        O800   1.279       .  A
C575        C643   1.473       .  S
O576        C820   1.266       .  A
O576       Co584   2.011       .  S
O577        C590   1.280   1_554  A
O577       Co585   2.014       .  S
O578        C591   1.263       .  A
O578       Co586   1.902       .  S
O579        C592   1.291       .  A
O579       Co587   2.075       .  S
O580       C1516   1.272   1_455  A
O580       Co585   1.971       .  S
O581       C1515   1.295       .  A
O581       Co584   2.102       .  S
O582        C589   1.259       .  A
O582       Co587   2.009       .  S
O583        C821   1.262       .  A
O583       Co586   1.962       .  S
Co584      O1743   2.006       .  S
Co585       O588   2.132   1_455  S
Co586       O819   2.019       .  S
Co587      O1512   2.047       .  S
O588      Co1739   2.104   1_554  S
O588      Co1511   2.055       .  S
O588       Co817   1.974   1_654  S
C589        O807   1.256       .  A
C589        C627   1.482       .  S
C590        O814   1.266       .  A
C590        C639   1.480       .  S
C591       O1505   1.288   1_455  A
C591        C669   1.421       .  S
C592       O1504   1.270       .  A
C592        C662   1.455       .  S
O593        C601   1.268       .  A
O593       Co613   1.908       .  S
O594        C602   1.271       .  A
O594       Co614   1.907       .  S
O595        C834   1.264       .  A
O595       Co615   2.009       .  S
O596        C604   1.253       .  A
O596       Co616   1.981       .  S
O597        C603   1.268   1_554  A
O597       Co614   1.988       .  S
O598        C835   1.268       .  A
O598       Co613   1.969       .  S
O599        C602   1.293       .  A
O599       Co616   2.103       .  S
O600        C601   1.294       .  A
O600       Co615   2.098       .  S
C601        C682   1.445       .  S
C602        C681   1.444       .  S
C603        O826   1.274       .  A
C603        C634   1.486       .  S
C604        O829   1.259       .  A
C604        C623   1.469       .  S
O605        C849   1.268       .  A
O605       Co613   2.026       .  S
O606        C619   1.270       .  A
O606       Co614   2.015       .  S
O607        C620   1.262       .  A
O607       Co615   1.885       .  S
O608        C621   1.263       .  A
O608       Co616   1.903       .  S
O609        C621   1.293       .  A
O609       Co614   2.109       .  S
O610        C620   1.294       .  A
O610       Co613   2.105       .  S
O611        C618   1.276   1_554  A
O611       Co616   1.981       .  S
O612        C850   1.266       .  A
O612       Co615   1.972       .  S
Co613       O848   2.020       .  S
Co614       O617   2.023   1_554  S
Co615       O848   2.009       .  S
Co616       O617   2.009   1_554  S
O617       Co844   2.036       .  S
O617       Co846   2.046       .  S
C618        O836   1.283       .  A
C618        C631   1.488       .  S
C619        O843   1.262   1_554  A
C619        C626   1.481       .  S
C620        C661   1.428       .  S
C621        C654   1.446       .  S
C622        H624   1.087   1_554  S
C622        C623   1.337       .  D
C623        H856   1.087       .  S
H625        C854   1.086       .  S
C626        H859   1.087   1_554  S
C626        C627   1.345       .  D
C627        H629   1.087       .  S
H628        C857   1.086       .  S
C630        H863   1.087       .  S
C630        C631   1.353   1_554  D
C631        H633   1.087       .  S
H632        C861   1.086       .  S
C634        H636   1.087       .  S
C634        C635   1.350   1_556  D
C635        H868   1.087       .  S
H637        C866   1.086       .  S
C638        H871   1.087       .  S
C638        C639   1.337       .  D
C639        H641   1.087       .  S
H640        C869   1.086       .  S
C642        H644   1.087       .  S
C642        C643   1.340       .  D
C643        H876   1.088   1_556  S
H645        C874   1.087       .  S
C646        C647   1.209       .  T
C647        C648   1.418       .  S
C648        C649   1.210       .  T
C650        C651   1.206       .  T
C651        C652   1.412       .  S
C652        C653   1.205       .  T
C654        C655   1.212       .  T
C655        C656   1.422       .  S
C656        C657   1.212       .  T
C658        C659   1.202       .  T
C659        C660   1.406       .  S
C660        C661   1.202       .  T
C662        C663   1.217       .  T
C663       C1588   1.430       .  S
C664        C665   1.218       .  T
C664       C1587   1.432       .  S
C666        C667   1.198       .  T
C667        C668   1.398       .  S
C668        C669   1.197       .  T
C670        C671   1.218       .  T
C671        C672   1.433       .  S
C672        C673   1.218       .  T
C674        C675   1.199       .  T
C675        C676   1.401       .  S
C676        C677   1.198       .  T
C678        C679   1.209       .  T
C679        C680   1.420       .  S
C680        C681   1.211       .  T
C682        C683   1.212       .  T
C683        C684   1.423       .  S
C684        C685   1.212       .  T
C686       C1611   1.211       .  T
C687       C1610   1.201       .  T
C687        C688   1.405       .  S
C688        C689   1.202       .  T
C690       C1387   1.466       .  S
C690        C691   1.203       .  T
C691        C692   1.408       .  S
C692        C693   1.203       .  T
C694       C1619   1.510       .  S
C694        C700   1.526       .  S
C694        C698   1.516       .  S
C694       C1845   1.482       .  S
C695       C1618   1.503   1_455  S
C695        H702   1.086       .  S
C695        C696   1.373       .  D
C696       C1621   1.561   1_455  S
C696        C713   1.503       .  S
C697       C1620   1.577       .  S
C697        C701   1.553       .  S
C697       C1623   1.558       .  S
C697        H703   1.110       .  S
C698        H704   1.087       .  S
C698       C1623   1.364       .  D
C699       C1621   1.550       .  S
C699       C1622   1.368       .  D
C699        C917   1.435       .  S
C700        H705   1.085       .  S
C700        C701   1.373       .  D
C701        C756   1.514       .  S
C706        C707   1.507       .  S
C706        C712   1.483       .  S
C706        C710   1.550       .  S
C706        C916   1.453       .  S
C707        H714   1.090       .  S
C707        C708   1.366       .  D
C708        C709   1.578       .  S
C708        C725   1.522       .  S
C709        C713   1.584       .  S
C709        C711   1.532       .  S
C709        H715   1.110       .  S
C710        H716   1.087       .  S
C710        C711   1.364       .  D
C711        C909   1.456       .  S
C712        H717   1.085       .  S
C712        C713   1.376       .  D
C718        C719   1.520       .  S
C718        C724   1.505       .  S
C718        C722   1.512       .  S
C718        C905   1.474       .  S
C719        H726   1.083       .  S
C719        C720   1.370       .  D
C720        C721   1.546       .  S
C721        C725   1.562       .  S
C721        C723   1.557       .  S
C721        H727   1.110       .  S
C722        H728   1.087       .  S
C722        C723   1.369       .  D
C723        C901   1.432       .  S
C724        H729   1.088       .  S
C724        C725   1.386       .  D
C730       C1655   1.492   1_455  S
C730        C736   1.507       .  S
C730        C734   1.544       .  S
C730        C897   1.467       .  S
C731       C1654   1.491       .  S
C731        H738   1.080       .  S
C731        C732   1.373       .  D
C732       C1657   1.593       .  S
C732        C749   1.510       .  S
C733       C1656   1.591       .  S
C733        C737   1.580   1_665  S
C733        C735   1.542   1_655  S
C733        H739   1.110       .  S
C734        H740   1.086       .  S
C734        C735   1.367       .  D
C735        C896   1.461       .  S
C736        H741   1.089   1_565  S
C736        C737   1.369   1_565  D
C742        C743   1.516       .  S
C742        C748   1.532       .  S
C742        C746   1.514       .  S
C742        C889   1.486       .  S
C743        H750   1.089       .  S
C743        C744   1.378       .  D
C744        C745   1.561       .  S
C745        C749   1.535       .  S
C745        C747   1.555       .  S
C745        H751   1.109       .  S
C746        H752   1.087       .  S
C746        C747   1.370       .  D
C747        C888   1.432       .  S
C748        H753   1.081       .  S
C748        C749   1.378       .  D
C754        C755   1.513       .  S
C754        C760   1.506       .  S
C754        C758   1.512       .  S
C754        C884   1.467       .  S
C755        H762   1.083       .  S
C755        C756   1.375       .  D
C756        C757   1.561       .  S
C757        C761   1.563       .  S
C757        C759   1.565       .  S
C757        H763   1.110       .  S
C758        H764   1.087       .  S
C758        C759   1.366       .  D
C759        C877   1.444       .  S
C760        H765   1.085       .  S
C760        C761   1.370       .  D
O766        C774   1.264       .  A
O766       Co786   1.888       .  S
O767        C775   1.246       .  A
O767       Co787   1.979       .  S
O768       Co788   1.987       .  S
O769        C777   1.268       .  A
O770        C776   1.268       .  A
O770       Co787   1.986       .  S
O772        C775   1.249       .  A
O772       Co789   1.991       .  S
O773        C774   1.297       .  A
O773       Co788   2.117       .  S
C774        C881   1.434       .  S
C775        C880   1.444       .  S
C776        C873   1.461       .  S
C777        C861   1.486       .  S
O779        C792   1.263       .  A
O779       Co787   1.998       .  S
O780        C793   1.260       .  A
O780       Co788   1.885       .  S
O781        C794   1.290       .  A
O781       Co789   2.070       .  S
O782        C794   1.268       .  A
O782       Co787   1.894       .  S
O783        C793   1.299       .  A
O783       Co786   2.122       .  S
O784        C791   1.264   1_545  A
O785       Co788   1.976       .  S
Co787       O790   1.957       .  S
Co789       O790   2.225       .  S
C791        C869   1.475       .  S
C792        C866   1.484       .  S
C793        C908   1.440       .  S
C794        C904   1.430       .  S
O795       C1727   1.283       .  A
O795       Co815   2.089       .  S
O796       C1728   1.257   1_455  A
O796       Co816   1.957       .  S
O797       Co817   1.933       .  S
O798        C806   1.279       .  A
O798       Co818   2.016       .  S
O799        C805   1.253       .  A
O799       Co816   1.973       .  S
O800       Co815   2.031       .  S
O801        C804   1.272       .  A
O801       Co818   2.028       .  S
O802        C803   1.251   1_455  A
O802       Co817   1.927       .  S
C803       O1719   1.280       .  A
C803        C924   1.450       .  S
C804       O1720   1.257       .  A
C804        C920   1.439       .  S
C805        C853   1.470       .  S
C806        C874   1.465       .  S
O807       Co815   1.978   1_554  S
O808        C821   1.280       .  A
O808       Co816   2.044       .  S
O809        C822   1.275       .  A
O809       Co817   2.037       .  S
O810        C823   1.262       .  A
O810       Co818   1.972       .  S
O811       C1747   1.273       .  A
O811       Co816   2.029       .  S
O812       C1746   1.255       .  A
O812       Co815   1.941       .  S
O813        C820   1.260       .  A
O813       Co818   1.979       .  S
O814       Co817   1.994       .  S
Co815      O1512   2.089   1_556  S
Co816       O819   2.036       .  S
Co818      O1743   2.043       .  S
O819      Co1508   2.024   1_455  S
O819      Co1742   2.034   1_455  S
C820        C858   1.478       .  S
C821        C870   1.478       .  S
C822       O1736   1.261   1_455  A
C822        C900   1.432       .  S
C823       O1735   1.278       .  A
C823        C893   1.457       .  S
O824        C832   1.258       .  A
O824       Co844   1.952       .  S
O825        C833   1.263       .  A
O825       Co845   1.973       .  S
O826       Co846   2.027       .  S
O827        C835   1.277       .  A
O827       Co847   2.018       .  S
O828        C834   1.259       .  A
O828       Co845   1.978       .  S
O829       Co844   1.991   1_554  S
O830        C833   1.274       .  A
O830       Co847   2.033       .  S
O831        C832   1.271       .  A
O831       Co846   2.016       .  S
C832        C913   1.418       .  S
C833        C912   1.450       .  S
C834        C865   1.480       .  S
C835        C854   1.465       .  S
O836       Co844   2.038       .  S
O837        C850   1.278       .  A
O837       Co845   2.033       .  S
O838        C851   1.263       .  A
O838       Co846   1.976       .  S
O839        C852   1.257       .  A
O839       Co847   1.958       .  S
O840        C852   1.268       .  A
O840       Co845   2.012       .  S
O841        C851   1.273       .  A
O841       Co844   2.036       .  S
O842        C849   1.258       .  A
O842       Co847   1.971       .  S
O843       Co846   1.980       .  S
Co845       O848   2.053       .  S
Co847       O848   2.043       .  S
C849        C862   1.484       .  S
C850        C857   1.471       .  S
C851        C892   1.454       .  S
C852        C885   1.428       .  S
C853        H855   1.088       .  S
C853        C854   1.347       .  D
C857        C858   1.345       .  D
C858        H860   1.088       .  S
C861        C862   1.355       .  D
C862        H864   1.087       .  S
C865        H867   1.087       .  S
C865        C866   1.350       .  D
C869        C870   1.353       .  D
C870        H872   1.087       .  S
C873        H875   1.088       .  S
C873        C874   1.335       .  D
C877        C878   1.209       .  T
C878        C879   1.419       .  S
C879        C880   1.210       .  T
C881        C882   1.206       .  T
C882        C883   1.411       .  S
C883        C884   1.205       .  T
C885        C886   1.201       .  T
C886        C887   1.403       .  S
C887        C888   1.200       .  T
C889        C890   1.217       .  T
C890        C891   1.431       .  S
C891        C892   1.217       .  T
C893        C894   1.219       .  T
C894       C1819   1.433       .  S
C895        C896   1.218       .  T
C895       C1818   1.432       .  S
C897        C898   1.204       .  T
C898        C899   1.409       .  S
C899        C900   1.204       .  T
C901        C902   1.201       .  T
C902        C903   1.406       .  S
C903        C904   1.203       .  T
C905        C906   1.210       .  T
C906        C907   1.419       .  S
C907        C908   1.210       .  T
C909        C910   1.214       .  T
C910        C911   1.426       .  S
C911        C912   1.214       .  T
C913        C914   1.196       .  T
C914        C915   1.397       .  S
C915        C916   1.197       .  T
C917       C1842   1.202       .  T
C918       C1841   1.207       .  T
C918        C919   1.416       .  S
C919        C920   1.208       .  T
C921       C1618   1.481       .  S
C921        C922   1.214       .  T
C922        C923   1.425       .  S
C923        C924   1.214       .  T
C925        C931   1.510   1_455  S
C925        C929   1.496       .  S
C926        H933   1.087       .  S
C926        C927   1.376       .  D
C927        C944   1.506       .  S
C928        C932   1.572       .  S
C928        H934   1.110       .  S
C929        H935   1.088       .  S
C930       C1148   1.451       .  S
C931        H936   1.082       .  S
C931        C932   1.373       .  D
C932        C987   1.529       .  S
C937        C938   1.526       .  S
C937        C943   1.520       .  S
C937        C941   1.514       .  S
C937       C1147   1.484       .  S
C938        H945   1.079       .  S
C938        C939   1.377       .  D
C939        C940   1.532       .  S
C939        C956   1.506       .  S
C940        C944   1.558       .  S
C940        C942   1.554       .  S
C940        H946   1.110       .  S
C941        H947   1.087       .  S
C941        C942   1.369       .  D
C942       C1140   1.433       .  S
C943        H948   1.088       .  S
C943        C944   1.383       .  D
C949        C950   1.499       .  S
C949        C955   1.495       .  S
C949        C953   1.530       .  S
C949       C1136   1.463       .  S
C950        H957   1.083       .  S
C950        C951   1.379       .  D
C951        C952   1.574       .  S
C951       C1430   1.527   1_545  S
C952        C956   1.578       .  S
C952        C954   1.548       .  S
C952        H958   1.109       .  S
C953        H959   1.087       .  S
C953        C954   1.364       .  D
C954       C1132   1.450       .  S
C955        H960   1.079       .  S
C955        C956   1.367       .  D
C961        C967   1.529       .  S
C961        C965   1.515       .  S
C961       C1128   1.478       .  S
C962        H969   1.089       .  S
C962        C963   1.375       .  D
C963        C980   1.521       .  S
C964        C968   1.560       .  S
C964        C966   1.578       .  S
C964        H970   1.109       .  S
C965        H971   1.087       .  S
C965        C966   1.370       .  D
C966       C1127   1.459       .  S
C967        H972   1.081       .  S
C967        C968   1.376       .  D
C968       C1413   1.522       .  S
C973        C974   1.493       .  S
C973        C979   1.496       .  S
C973        C977   1.550       .  S
C973       C1120   1.463       .  S
C974        H981   1.088       .  S
C974        C975   1.369       .  D
C975        C976   1.582       .  S
C975       C1454   1.505       .  S
C976        C980   1.584       .  S
C976        C978   1.539       .  S
C976        H982   1.110       .  S
C977        H983   1.087       .  S
C977        C978   1.363       .  D
C978       C1119   1.467       .  S
C979        H984   1.088       .  S
C979        C980   1.378       .  D
C985        C986   1.502       .  S
C985        C991   1.503       .  S
C985        C989   1.539       .  S
C985       C1115   1.474       .  S
C986        H993   1.082       .  S
C986        C987   1.380       .  D
C987        C988   1.581       .  S
C988        C992   1.574       .  S
C988        C990   1.541       .  S
C988        H994   1.110       .  S
C989        H995   1.087       .  S
C989        C990   1.366       .  D
C990       C1108   1.453       .  S
C991        H996   1.085       .  S
C991        C992   1.366       .  D
C992       C1437   1.511   1_545  S
O997       C1005   1.277       .  A
O997      Co1017   2.038       .  S
O998       C1006   1.262       .  A
O998      Co1018   1.966       .  S
O999       C1238   1.261       .  A
O999      Co1019   1.869       .  S
O1000      C1008   1.275   1_554  A
O1000     Co1482   2.020       .  S
O1001      C1007   1.259   1_554  A
O1001     Co1018   1.989       .  S
O1002      C1239   1.274       .  A
O1002     Co1479   2.040       .  S
O1003      C1006   1.278       .  A
O1003     Co1020   2.040       .  S
O1004      C1005   1.263       .  A
O1004     Co1019   1.964       .  S
C1005      C1112   1.438       .  S
C1006      C1111   1.446       .  S
C1007      O1230   1.260       .  A
C1007      C1104   1.468       .  S
C1008      O1233   1.269       .  A
C1008      C1092   1.482       .  S
O1009      C1253   1.259       .  A
O1009     Co1479   1.957       .  S
O1010      C1023   1.283       .  A
O1010     Co1018   2.040       .  S
O1011      C1024   1.260       .  A
O1011     Co1019   2.001       .  S
O1012      C1025   1.256       .  A
O1012     Co1020   1.965       .  S
O1013      C1025   1.270       .  A
O1013     Co1018   2.030       .  S
O1014      C1024   1.256       .  A
O1014     Co1017   1.972       .  S
O1015      C1022   1.255       .  A
O1015     Co1482   1.963   1_556  S
O1016      C1254   1.292       .  A
O1016     Co1019   2.097       .  S
Co1017     O1464   2.004   1_545  S
Co1017     O1471   1.974   1_545  S
Co1017     O1252   2.032       .  S
Co1018     O1021   2.051       .  S
Co1019     O1252   1.989       .  S
Co1020     O1462   2.041   1_545  S
Co1020     O1477   1.961   1_545  S
Co1020     O1021   2.023       .  S
O1021     Co1248   2.041   1_554  S
O1021     Co1250   1.989   1_554  S
C1022      O1240   1.259       .  A
C1022      C1100   1.463       .  S
C1023      O1247   1.270   1_554  A
C1023      C1097   1.493       .  S
C1024      C1139   1.427       .  S
C1025      C1135   1.444       .  S
O1026     Co1046   1.981       .  S
O1027     Co1047   2.012       .  S
O1028      C1267   1.277       .  A
O1028     Co1048   2.038       .  S
O1029      C1037   1.265   1_554  A
O1029     Co1049   2.000       .  S
O1030      C1036   1.258       .  A
O1030     Co1047   1.982       .  S
O1031      C1268   1.262       .  A
O1031     Co1046   1.989       .  S
O1032      C1035   1.267       .  A
O1032     Co1049   1.925       .  S
O1033      C1034   1.271       .  A
O1033     Co1048   2.015       .  S
C1034      C1155   1.425       .  S
C1035      C1151   1.458   1_655  S
C1036      O1259   1.262   1_554  A
C1036      C1084   1.496       .  S
C1037      O1262   1.267       .  A
C1037      C1105   1.482   1_556  S
O1038      C1282   1.283       .  A
O1038     Co1046   2.050       .  S
O1039      C1052   1.275   1_554  A
O1039     Co1047   2.011       .  S
O1040      C1053   1.261       .  A
O1040     Co1048   1.972       .  S
O1041      C1054   1.293       .  A
O1041     Co1049   2.087   1_455  S
O1042     Co1047   1.985       .  S
O1043     Co1046   2.018       .  S
O1044      C1051   1.261       .  A
O1044     Co1049   1.980       .  S
O1045      C1283   1.263       .  A
O1045     Co1048   1.986       .  S
Co1047     O1050   2.016   1_554  S
Co1048     O1281   2.050       .  S
O1050     Co1279   2.054       .  S
C1051      O1269   1.261   1_554  A
C1051      C1089   1.464       .  S
C1052      O1276   1.265       .  A
C1052      C1101   1.473       .  S
C1053      C1131   1.445       .  S
C1054      C1124   1.445       .  S
O1055      C1063   1.263       .  A
O1055     Co1075   1.894       .  S
O1056      C1064   1.276       .  A
O1056     Co1076   2.019       .  S
O1057      C1296   1.259       .  A
O1057     Co1077   1.999       .  S
O1058      C1066   1.275       .  A
O1058     Co1078   1.925       .  S
O1059      C1065   1.273       .  A
O1059     Co1076   2.015       .  S
O1060      C1297   1.279       .  A
O1060     Co1075   2.014       .  S
O1061      C1064   1.264       .  A
O1061     Co1078   1.961       .  S
O1062      C1063   1.301       .  A
O1062     Co1077   2.127       .  S
C1063      C1144   1.453       .  S
C1064      C1143   1.429       .  S
C1065      O1288   1.273       .  A
C1065      C1096   1.487       .  S
C1066      O1291   1.293   1_554  A
C1066      C1085   1.487       .  S
O1067      C1311   1.260       .  A
O1067     Co1075   1.992       .  S
O1068      C1081   1.265   1_554  A
O1068     Co1076   1.966       .  S
O1069      C1082   1.266       .  A
O1069     Co1077   1.881       .  S
O1070      C1083   1.278       .  A
O1070     Co1078   2.048       .  S
O1071      C1083   1.259       .  A
O1071     Co1076   1.974       .  S
O1072      C1082   1.298       .  A
O1072     Co1075   2.124       .  S
O1073      C1080   1.298       .  A
O1073     Co1078   2.122       .  S
O1074      C1312   1.272       .  A
O1074     Co1077   1.998       .  S
Co1075     O1310   2.024       .  S
Co1076     O1079   2.019       .  S
Co1077     O1310   2.050       .  S
Co1078     O1079   2.014       .  S
O1079     Co1306   1.977   1_554  S
O1079     Co1308   2.038   1_554  S
C1080      O1298   1.266   1_554  A
C1080      C1093   1.479       .  S
C1081      O1305   1.268       .  A
C1081      C1088   1.453       .  S
C1082      C1123   1.429       .  S
C1083      C1116   1.460       .  S
C1084      H1086   1.086       .  S
C1084      C1085   1.351       .  D
C1085      H1318   1.088   1_554  S
H1087      C1316   1.087       .  S
C1088      H1321   1.087       .  S
C1088      C1089   1.337   1_556  D
C1089      H1091   1.088       .  S
H1090      C1319   1.086       .  S
C1092      H1325   1.087       .  S
C1092      C1093   1.348   1_556  D
C1093      H1095   1.086       .  S
H1094      C1323   1.086       .  S
C1096      H1098   1.087       .  S
C1096      C1097   1.348       .  D
C1097      H1330   1.086   1_554  S
H1099      C1328   1.088       .  S
C1100      H1333   1.086       .  S
C1100      C1101   1.348       .  D
C1101      H1103   1.087   1_556  S
H1102      C1331   1.087       .  S
C1104      H1106   1.087       .  S
C1104      C1105   1.348   1_556  D
C1105      H1338   1.086       .  S
H1107      C1336   1.087       .  S
C1108      C1109   1.213       .  T
C1109      C1110   1.424       .  S
C1110      C1111   1.213       .  T
C1112      C1113   1.208       .  T
C1113      C1114   1.416       .  S
C1114      C1115   1.208       .  T
C1116      C1117   1.221       .  T
C1117      C1118   1.438       .  S
C1118      C1119   1.221       .  T
C1120      C1121   1.202       .  T
C1121      C1122   1.407       .  S
C1122      C1123   1.202       .  T
C1124      C1125   1.211       .  T
C1126      C1127   1.218       .  T
C1128      C1129   1.213       .  T
C1129      C1130   1.423       .  S
C1130      C1131   1.212       .  T
C1132      C1133   1.211       .  T
C1133      C1134   1.421       .  S
C1134      C1135   1.211       .  T
C1136      C1137   1.202       .  T
C1137      C1138   1.405       .  S
C1138      C1139   1.201       .  T
C1140      C1141   1.200       .  T
C1141      C1142   1.404       .  S
C1142      C1143   1.202       .  T
C1144      C1145   1.217       .  T
C1145      C1146   1.430       .  S
C1146      C1147   1.216       .  T
C1149      C1150   1.434       .  S
C1150      C1151   1.219   1_655  T
C1152      C1153   1.200       .  T
C1153      C1154   1.402       .  S
C1154      C1155   1.200       .  T
C1156      C1162   1.516       .  S
C1156      C1160   1.498   1_655  S
C1157      H1164   1.083       .  S
C1157      C1158   1.373       .  D
C1158      C1175   1.512       .  S
C1159      C1163   1.560   1_455  S
C1159      H1165   1.109       .  S
C1160      H1166   1.088       .  S
C1161      C1379   1.432       .  S
C1162      H1167   1.087       .  S
C1162      C1163   1.378       .  D
C1163      C1218   1.510       .  S
C1168      C1169   1.505       .  S
C1168      C1174   1.503       .  S
C1168      C1172   1.521       .  S
C1168      C1378   1.462       .  S
C1169      H1176   1.081       .  S
C1169      C1170   1.373       .  D
C1170      C1171   1.572       .  S
C1170      C1187   1.516       .  S
C1171      C1175   1.570       .  S
C1171      C1173   1.559       .  S
C1171      H1177   1.109       .  S
C1172      H1178   1.087       .  S
C1172      C1173   1.363       .  D
C1173      C1371   1.451       .  S
C1174      H1179   1.081       .  S
C1174      C1175   1.372       .  D
C1180      C1181   1.503       .  S
C1180      C1186   1.514       .  S
C1180      C1184   1.512       .  S
C1180      C1367   1.483       .  S
C1181      H1188   1.086       .  S
C1181      C1182   1.381       .  D
C1182      C1183   1.559       .  S
C1182      C1661   1.522       .  S
C1183      C1187   1.560       .  S
C1183      C1185   1.566       .  S
C1183      H1189   1.110       .  S
C1184      H1190   1.087       .  S
C1184      C1185   1.369       .  D
C1185      C1363   1.441       .  S
C1186      H1191   1.081       .  S
C1186      C1187   1.379       .  D
C1192      C1198   1.515       .  S
C1192      C1196   1.511       .  S
C1192      C1359   1.458       .  S
C1193      H1200   1.086       .  S
C1193      C1194   1.375       .  D
C1194      C1211   1.507       .  S
C1195      C1199   1.555       .  S
C1195      C1197   1.567       .  S
C1195      H1201   1.110       .  S
C1196      H1202   1.087       .  S
C1196      C1197   1.367       .  D
C1197      C1358   1.443       .  S
C1198      H1203   1.084       .  S
C1198      C1199   1.371       .  D
C1199      C1644   1.499       .  S
C1204      C1205   1.499       .  S
C1204      C1210   1.503       .  S
C1204      C1208   1.549       .  S
C1204      C1351   1.475       .  S
C1205      H1212   1.087       .  S
C1205      C1206   1.375       .  D
C1206      C1207   1.574       .  S
C1206      C1685   1.508       .  S
C1207      C1211   1.569       .  S
C1207      C1209   1.541       .  S
C1207      H1213   1.110       .  S
C1208      H1214   1.086       .  S
C1208      C1209   1.370       .  D
C1209      C1350   1.464       .  S
C1210      H1215   1.088       .  S
C1210      C1211   1.370       .  D
C1216      C1217   1.516       .  S
C1216      C1222   1.491       .  S
C1216      C1220   1.548       .  S
C1216      C1346   1.462       .  S
C1217      H1224   1.088       .  S
C1217      C1218   1.382       .  D
C1218      C1219   1.567       .  S
C1219      C1223   1.573       .  S
C1219      C1221   1.533       .  S
C1219      H1225   1.111       .  S
C1220      H1226   1.087       .  S
C1220      C1221   1.364       .  D
C1221      C1339   1.454       .  S
C1222      H1227   1.088       .  S
C1222      C1223   1.361       .  D
C1223      C1668   1.499   1_545  S
O1228      C1236   1.273       .  A
O1228     Co1248   1.897       .  S
O1229      C1237   1.263       .  A
O1229     Co1249   2.024       .  S
O1230     Co1250   1.986       .  S
O1231      C1239   1.256       .  A
O1231     Co1713   1.948       .  S
O1232      C1238   1.301       .  A
O1232     Co1249   2.119       .  S
O1233     Co1710   1.978       .  S
O1234      C1237   1.252       .  A
O1234     Co1251   1.972       .  S
O1235      C1236   1.292       .  A
O1235     Co1250   2.097       .  S
C1236      C1343   1.431       .  S
C1237      C1342   1.447       .  S
C1238      C1335   1.464       .  S
C1239      C1323   1.477       .  S
O1240     Co1710   1.999       .  S
O1241      C1254   1.264       .  A
O1241     Co1249   1.887       .  S
O1242      C1255   1.259       .  A
O1242     Co1250   1.901       .  S
O1243      C1256   1.280       .  A
O1243     Co1251   2.035       .  S
O1244      C1256   1.265       .  A
O1244     Co1249   1.967       .  S
O1245      C1255   1.295       .  A
O1245     Co1248   2.123       .  S
O1246      C1253   1.276       .  A
O1246     Co1713   2.023       .  S
O1247     Co1250   1.977       .  S
Co1248     O1695   1.979   1_545  S
Co1248     O1702   2.020   1_545  S
Co1249     O1252   2.006       .  S
Co1251     O1693   1.953   1_545  S
Co1251     O1708   2.004   1_545  S
Co1251     O1252   2.026       .  S
C1253      C1331   1.470       .  S
C1254      C1328   1.463       .  S
C1255      C1370   1.449       .  S
C1256      C1366   1.440       .  S
O1257     Co1277   1.972       .  S
O1258     Co1278   1.890       .  S
O1259     Co1279   1.992       .  S
O1260      C1268   1.254       .  A
O1260     Co1280   1.975       .  S
O1261      C1267   1.277       .  A
O1261     Co1278   2.015       .  S
O1262     Co1277   1.982       .  S
O1263      C1266   1.293   1_655  A
O1263     Co1280   2.109       .  S
O1264      C1265   1.266       .  A
O1264     Co1279   1.981       .  S
C1265      C1386   1.438       .  S
C1266      C1382   1.446       .  S
C1267      C1315   1.509       .  S
C1268      C1336   1.469       .  S
O1269     Co1277   1.974       .  S
O1270      C1283   1.257       .  A
O1270     Co1278   1.979       .  S
O1271      C1284   1.266       .  A
O1271     Co1279   1.993       .  S
O1272      C1285   1.263       .  A
O1272     Co1280   1.910       .  S
O1273     Co1278   2.110       .  S
O1274     Co1277   1.964       .  S
O1275      C1282   1.275       .  A
O1275     Co1280   1.997       .  S
O1276     Co1279   1.967       .  S
Co1278     O1281   2.014       .  S
C1282      C1320   1.506       .  S
C1283      C1332   1.467       .  S
C1284      C1362   1.426       .  S
C1285      C1355   1.441       .  S
O1286      C1294   1.264       .  A
O1286     Co1306   2.001       .  S
O1287      C1295   1.258       .  A
O1287     Co1307   1.960       .  S
O1288     Co1308   1.998   1_554  S
O1289      C1297   1.279       .  A
O1289     Co1309   2.036       .  S
O1290      C1296   1.254       .  A
O1290     Co1307   1.962       .  S
O1291     Co1306   2.105       .  S
O1292      C1295   1.276       .  A
O1292     Co1309   2.041       .  S
O1293      C1294   1.262       .  A
O1293     Co1308   1.976       .  S
C1294      C1375   1.428       .  S
C1295      C1374   1.446       .  S
C1296      C1327   1.465       .  S
C1297      C1316   1.513       .  S
O1298     Co1306   1.891       .  S
O1299      C1312   1.279       .  A
O1299     Co1307   2.047       .  S
O1300      C1313   1.279       .  A
O1300     Co1308   2.033       .  S
O1301      C1314   1.262       .  A
O1301     Co1309   1.979       .  S
O1302      C1314   1.274       .  A
O1302     Co1307   2.041       .  S
O1303      C1313   1.268       .  A
O1303     Co1306   1.967       .  S
O1304      C1311   1.261       .  A
O1304     Co1309   1.985       .  S
O1305     Co1308   1.992       .  S
Co1307     O1310   2.049       .  S
Co1309     O1310   2.046       .  S
C1311      C1324   1.469       .  S
C1312      C1319   1.507       .  S
C1313      C1354   1.438       .  S
C1314      C1347   1.459       .  S
C1315      H1317   1.086       .  S
C1315      C1316   1.358       .  D
C1319      C1320   1.360       .  D
C1320      H1322   1.086       .  S
C1323      C1324   1.349       .  D
C1324      H1326   1.087       .  S
C1327      H1329   1.087       .  S
C1327      C1328   1.343       .  D
C1331      C1332   1.337       .  D
C1332      H1334   1.087       .  S
C1335      H1337   1.088       .  S
C1335      C1336   1.334       .  D
C1339      C1340   1.213       .  T
C1340      C1341   1.425       .  S
C1341      C1342   1.213       .  T
C1343      C1344   1.203       .  T
C1344      C1345   1.408       .  S
C1345      C1346   1.203       .  T
C1347      C1348   1.220       .  T
C1348      C1349   1.435       .  S
C1349      C1350   1.220       .  T
C1351      C1352   1.209       .  T
C1352      C1353   1.417       .  S
C1353      C1354   1.208       .  T
C1355      C1356   1.209       .  T
C1357      C1358   1.209       .  T
C1359      C1360   1.201       .  T
C1360      C1361   1.406       .  S
C1361      C1362   1.202       .  T
C1363      C1364   1.207       .  T
C1364      C1365   1.416       .  S
C1365      C1366   1.208       .  T
C1367      C1368   1.214       .  T
C1368      C1369   1.426       .  S
C1369      C1370   1.214       .  T
C1371      C1372   1.212       .  T
C1372      C1373   1.423       .  S
C1373      C1374   1.213       .  T
C1375      C1376   1.201       .  T
C1376      C1377   1.405       .  S
C1377      C1378   1.201       .  T
C1380      C1381   1.421       .  S
C1381      C1382   1.212       .  T
C1383      C1384   1.208       .  T
C1384      C1385   1.416       .  S
C1385      C1386   1.208       .  T
C1387      C1393   1.488   1_455  S
C1387      C1391   1.534       .  S
C1388      H1395   1.085       .  S
C1388      C1389   1.381       .  D
C1389      C1406   1.508       .  S
C1390      C1394   1.585   1_455  S
C1390      H1396   1.110       .  S
C1391      H1397   1.087       .  S
C1392      C1610   1.432       .  S
C1393      H1398   1.081       .  S
C1393      C1394   1.377       .  D
C1394      C1449   1.519       .  S
C1399      C1400   1.504       .  S
C1399      C1405   1.475       .  S
C1399      C1403   1.556       .  S
C1399      C1609   1.457       .  S
C1400      H1407   1.089       .  S
C1400      C1401   1.376       .  D
C1401      C1402   1.586       .  S
C1401      C1418   1.524       .  S
C1402      C1406   1.593       .  S
C1402      C1404   1.541       .  S
C1402      H1408   1.110       .  S
C1403      H1409   1.086       .  S
C1403      C1404   1.369       .  D
C1404      C1602   1.476       .  S
C1405      H1410   1.087       .  S
C1405      C1406   1.361       .  D
C1411      C1412   1.532       .  S
C1411      C1417   1.507       .  S
C1411      C1415   1.509       .  S
C1411      C1598   1.479       .  S
C1412      H1419   1.082       .  S
C1412      C1413   1.377       .  D
C1413      C1414   1.556       .  S
C1414      C1418   1.564       .  S
C1414      C1416   1.571       .  S
C1414      H1420   1.109       .  S
C1415      H1421   1.087       .  S
C1415      C1416   1.368       .  D
C1416      C1594   1.443       .  S
C1417      H1422   1.089       .  S
C1417      C1418   1.378       .  D
C1423      C1429   1.494       .  S
C1423      C1427   1.511       .  S
C1423      C1590   1.465       .  S
C1424      H1431   1.088       .  S
C1424      C1425   1.365       .  D
C1425      C1442   1.489       .  S
C1426      C1430   1.586       .  S
C1426      C1428   1.576       .  S
C1426      H1432   1.110       .  S
C1427      H1433   1.087       .  S
C1427      C1428   1.367       .  D
C1428      C1589   1.453       .  S
C1429      H1434   1.083       .  S
C1429      C1430   1.372       .  D
C1435      C1436   1.518       .  S
C1435      C1441   1.511       .  S
C1435      C1439   1.518       .  S
C1435      C1582   1.485       .  S
C1436      H1443   1.083       .  S
C1436      C1437   1.381       .  D
C1437      C1438   1.545       .  S
C1438      C1442   1.545       .  S
C1438      C1440   1.553       .  S
C1438      H1444   1.110       .  S
C1439      H1445   1.087       .  S
C1439      C1440   1.372       .  D
C1440      C1581   1.433       .  S
C1441      H1446   1.087       .  S
C1441      C1442   1.375       .  D
C1447      C1448   1.506       .  S
C1447      C1453   1.508       .  S
C1447      C1451   1.509       .  S
C1447      C1577   1.474       .  S
C1448      H1455   1.082       .  S
C1448      C1449   1.374       .  D
C1449      C1450   1.564       .  S
C1450      C1454   1.549       .  S
C1450      C1452   1.571       .  S
C1450      H1456   1.110       .  S
C1451      H1457   1.087       .  S
C1451      C1452   1.372       .  D
C1452      C1570   1.439       .  S
C1453      H1458   1.087       .  S
C1453      C1454   1.375       .  D
O1459      C1467   1.272       .  A
O1459     Co1479   2.001       .  S
O1460      C1468   1.254       .  A
O1460     Co1480   1.952       .  S
O1461      C1700   1.271       .  A
O1461     Co1481   1.910       .  S
O1462      C1470   1.278       .  A
O1463      C1469   1.255       .  A
O1463     Co1480   1.978   1_556  S
O1464      C1701   1.271       .  A
O1465      C1468   1.273       .  A
O1465     Co1482   2.031       .  S
O1466      C1467   1.279       .  A
O1466     Co1481   1.996       .  S
C1467      C1574   1.440       .  S
C1468      C1573   1.437       .  S
C1469      O1692   1.259       .  A
C1469      C1566   1.479       .  S
C1470      O1695   1.267   1_554  A
C1470      C1554   1.489       .  S
O1471      C1715   1.263       .  A
O1472      C1485   1.280   1_554  A
O1472     Co1480   2.036       .  S
O1473      C1486   1.264       .  A
O1473     Co1481   2.013       .  S
O1474      C1487   1.253       .  A
O1474     Co1482   1.951       .  S
O1475      C1487   1.274       .  A
O1475     Co1480   2.039       .  S
O1476      C1486   1.259       .  A
O1476     Co1479   1.976       .  S
O1477      C1484   1.251   1_554  A
O1478      C1716   1.304       .  A
O1478     Co1481   2.125       .  S
Co1479     O1714   2.039       .  S
Co1480     O1483   2.045   1_554  S
Co1481     O1714   2.006       .  S
Co1482     O1483   2.049   1_554  S
O1483     Co1710   2.013       .  S
O1483     Co1712   2.019       .  S
C1484      O1702   1.269       .  A
C1484      C1562   1.465       .  S
C1485      O1709   1.265       .  A
C1485      C1559   1.479       .  S
C1486      C1601   1.445       .  S
C1487      C1597   1.441       .  S
O1488     Co1508   1.904       .  S
O1489     Co1509   2.020       .  S
O1490      C1729   1.263       .  A
O1490     Co1510   2.008       .  S
O1491      C1499   1.262   1_554  A
O1491     Co1511   1.962       .  S
O1492      C1498   1.282       .  A
O1492     Co1509   2.046       .  S
O1493      C1730   1.262       .  A
O1493     Co1508   1.963       .  S
O1494      C1497   1.249       .  A
O1494     Co1511   1.966   1_455  S
O1495      C1496   1.299       .  A
O1495     Co1510   2.132       .  S
C1496      C1617   1.444       .  S
C1497      C1613   1.444       .  S
C1498      O1721   1.251   1_554  A
C1498      C1546   1.463       .  S
C1499      O1724   1.277       .  A
C1499      C1567   1.479       .  S
O1500      C1744   1.258       .  A
O1500     Co1508   2.008       .  S
O1501      C1514   1.277       .  A
O1501     Co1509   2.000   1_556  S
O1502      C1515   1.264       .  A
O1502     Co1510   1.887       .  S
O1503      C1516   1.287       .  A
O1503     Co1511   2.064       .  S
O1504     Co1509   1.961       .  S
O1505     Co1508   2.078       .  S
O1506      C1513   1.264       .  A
O1506     Co1511   2.017       .  S
O1507      C1745   1.269       .  A
O1507     Co1510   1.971       .  S
Co1509     O1512   2.122       .  S
Co1510     O1743   2.012       .  S
O1512     Co1741   1.970   1_554  S
C1513      O1731   1.260       .  A
C1513      C1551   1.489       .  S
C1514      O1738   1.264       .  A
C1514      C1563   1.471       .  S
C1515      C1593   1.431       .  S
C1516      C1586   1.456       .  S
O1517      C1525   1.279       .  A
O1517     Co1537   2.027       .  S
O1518      C1526   1.267       .  A
O1518     Co1538   1.930       .  S
O1519      C1758   1.256       .  A
O1519     Co1539   1.879       .  S
O1520      C1528   1.253       .  A
O1520     Co1540   1.968       .  S
O1521      C1527   1.265       .  A
O1521     Co1538   1.965       .  S
O1522      C1759   1.269       .  A
O1522     Co1537   2.020       .  S
O1523      C1526   1.296       .  A
O1523     Co1540   2.121       .  S
O1524      C1525   1.262       .  A
O1524     Co1539   1.950       .  S
C1525      C1606   1.421       .  S
C1526      C1605   1.471       .  S
C1527      O1750   1.281   1_554  A
C1527      C1558   1.477       .  S
C1528      O1753   1.261       .  A
C1528      C1547   1.461       .  S
O1529      C1773   1.262       .  A
O1529     Co1537   1.949       .  S
O1530      C1543   1.268       .  A
O1530     Co1538   2.026       .  S
O1531      C1544   1.256       .  A
O1531     Co1539   2.012       .  S
O1532      C1545   1.262       .  A
O1532     Co1540   1.896       .  S
O1533      C1545   1.290       .  A
O1533     Co1538   2.095       .  S
O1534      C1544   1.255       .  A
O1534     Co1537   1.989       .  S
O1535      C1542   1.271   1_554  A
O1535     Co1540   1.984       .  S
O1536      C1774   1.298       .  A
O1536     Co1539   2.101       .  S
Co1537     O1772   2.045       .  S
Co1538     O1541   2.037       .  S
Co1539     O1772   2.000       .  S
Co1540     O1541   2.024       .  S
O1541     Co1768   2.051   1_554  S
O1541     Co1770   2.039   1_554  S
C1542      O1760   1.281       .  A
C1542      C1555   1.492       .  S
C1543      O1767   1.258   1_554  A
C1543      C1550   1.486       .  S
C1544      C1585   1.453       .  S
C1545      C1578   1.428       .  S
C1546      H1548   1.087       .  S
C1546      C1547   1.332       .  D
C1547      H1780   1.087       .  S
H1549      C1778   1.087       .  S
C1550      H1783   1.087       .  S
C1550      C1551   1.346       .  D
C1551      H1553   1.087       .  S
H1552      C1781   1.087       .  S
C1554      H1787   1.086       .  S
C1554      C1555   1.354   1_554  D
C1555      H1557   1.087       .  S
H1556      C1785   1.088       .  S
C1558      H1560   1.087       .  S
C1558      C1559   1.339   1_554  D
C1559      H1792   1.087       .  S
H1561      C1790   1.087       .  S
C1562      H1795   1.088       .  S
C1562      C1563   1.333       .  D
C1563      H1565   1.087       .  S
H1564      C1793   1.087       .  S
C1566      H1568   1.086       .  S
C1566      C1567   1.345       .  D
C1567      H1800   1.087   1_556  S
H1569      C1798   1.087       .  S
C1570      C1571   1.206       .  T
C1571      C1572   1.414       .  S
C1572      C1573   1.207       .  T
C1574      C1575   1.211       .  T
C1575      C1576   1.422       .  S
C1576      C1577   1.211       .  T
C1578      C1579   1.201       .  T
C1579      C1580   1.404       .  S
C1580      C1581   1.201       .  T
C1582      C1583   1.216       .  T
C1583      C1584   1.429       .  S
C1584      C1585   1.216       .  T
C1586      C1587   1.218       .  T
C1588      C1589   1.216       .  T
C1590      C1591   1.204       .  T
C1591      C1592   1.410       .  S
C1592      C1593   1.205       .  T
C1594      C1595   1.209       .  T
C1595      C1596   1.419       .  S
C1596      C1597   1.210       .  T
C1598      C1599   1.212       .  T
C1599      C1600   1.422       .  S
C1600      C1601   1.212       .  T
C1602      C1603   1.227       .  T
C1603      C1604   1.446       .  S
C1604      C1605   1.227       .  T
C1606      C1607   1.198       .  T
C1607      C1608   1.400       .  S
C1608      C1609   1.198       .  T
C1611      C1612   1.421       .  S
C1612      C1613   1.211       .  T
C1614      C1615   1.212       .  T
C1615      C1616   1.422       .  S
C1616      C1617   1.212       .  T
C1618      C1624   1.531       .  S
C1618      C1622   1.521       .  S
C1619      H1626   1.087       .  S
C1619      C1620   1.380       .  D
C1620      C1637   1.520       .  S
C1621      C1625   1.544       .  S
C1621      H1627   1.110       .  S
C1622      H1628   1.087       .  S
C1623      C1841   1.442       .  S
C1624      H1629   1.084       .  S
C1624      C1625   1.380       .  D
C1625      C1680   1.509       .  S
C1630      C1631   1.513       .  S
C1630      C1636   1.492       .  S
C1630      C1634   1.551       .  S
C1630      C1840   1.477       .  S
C1631      H1638   1.089       .  S
C1631      C1632   1.378       .  D
C1632      C1633   1.577       .  S
C1632      C1649   1.524       .  S
C1633      C1637   1.587       .  S
C1633      C1635   1.539       .  S
C1633      H1639   1.110       .  S
C1634      H1640   1.086       .  S
C1634      C1635   1.366       .  D
C1635      C1833   1.466       .  S
C1636      H1641   1.087       .  S
C1636      C1637   1.373       .  D
C1642      C1643   1.527       .  S
C1642      C1648   1.513       .  S
C1642      C1646   1.510       .  S
C1642      C1829   1.470       .  S
C1643      H1650   1.085       .  S
C1643      C1644   1.367       .  D
C1644      C1645   1.542       .  S
C1645      C1649   1.568       .  S
C1645      C1647   1.569       .  S
C1645      H1651   1.109       .  S
C1646      H1652   1.087       .  S
C1646      C1647   1.366       .  D
C1647      C1825   1.445       .  S
C1648      H1653   1.088       .  S
C1648      C1649   1.382       .  D
C1654      C1660   1.508       .  S
C1654      C1658   1.544       .  S
C1654      C1821   1.457       .  S
C1655      H1662   1.082       .  S
C1655      C1656   1.372       .  D
C1656      C1673   1.519       .  S
C1657      C1661   1.576   1_565  S
C1657      C1659   1.541       .  S
C1657      H1663   1.109       .  S
C1658      H1664   1.087       .  S
C1658      C1659   1.364       .  D
C1659      C1820   1.462       .  S
C1660      H1665   1.089   1_565  S
C1660      C1661   1.365   1_565  D
C1666      C1667   1.514       .  S
C1666      C1672   1.518       .  S
C1666      C1670   1.517       .  S
C1666      C1813   1.492       .  S
C1667      H1674   1.087       .  S
C1667      C1668   1.376       .  D
C1668      C1669   1.549       .  S
C1669      C1673   1.554       .  S
C1669      C1671   1.561       .  S
C1669      H1675   1.110       .  S
C1670      H1676   1.087       .  S
C1670      C1671   1.372       .  D
C1671      C1812   1.440       .  S
C1672      H1677   1.082       .  S
C1672      C1673   1.381       .  D
C1678      C1679   1.515       .  S
C1678      C1684   1.505       .  S
C1678      C1682   1.505       .  S
C1678      C1808   1.454       .  S
C1679      H1686   1.083       .  S
C1679      C1680   1.367       .  D
C1680      C1681   1.561       .  S
C1681      C1685   1.567       .  S
C1681      C1683   1.569       .  S
C1681      H1687   1.110       .  S
C1682      H1688   1.087       .  S
C1682      C1683   1.364       .  D
C1683      C1801   1.442       .  S
C1684      H1689   1.087       .  S
C1684      C1685   1.372       .  D
O1690      C1698   1.261       .  A
O1690     Co1710   1.871       .  S
O1691      C1699   1.268       .  A
O1691     Co1711   2.024       .  S
O1692     Co1712   2.009       .  S
O1693      C1701   1.262       .  A
O1694      C1700   1.291       .  A
O1694     Co1711   2.099       .  S
O1696      C1699   1.254       .  A
O1696     Co1713   1.971       .  S
O1697      C1698   1.296       .  A
O1697     Co1712   2.104       .  S
C1698      C1805   1.420       .  S
C1699      C1804   1.443       .  S
C1700      C1797   1.482       .  S
C1701      C1785   1.454       .  S
O1703      C1716   1.265       .  A
O1703     Co1711   1.875       .  S
O1704      C1717   1.261       .  A
O1704     Co1712   1.882       .  S
O1705      C1718   1.276       .  A
O1705     Co1713   2.036       .  S
O1706      C1718   1.261       .  A
O1706     Co1711   1.965       .  S
O1707      C1717   1.300       .  A
O1707     Co1710   2.127       .  S
O1708      C1715   1.268       .  A
O1709     Co1712   1.964       .  S
Co1711     O1714   1.998       .  S
Co1713     O1714   2.026       .  S
C1715      C1793   1.471       .  S
C1716      C1790   1.469       .  S
C1717      C1832   1.436       .  S
C1718      C1828   1.442       .  S
O1719     Co1739   2.076       .  S
O1720     Co1740   1.960       .  S
O1721     Co1741   1.925       .  S
O1722      C1730   1.284       .  A
O1722     Co1742   2.055       .  S
O1723      C1729   1.260       .  A
O1723     Co1740   1.983       .  S
O1724     Co1739   2.033       .  S
O1725      C1728   1.269       .  A
O1725     Co1742   2.011       .  S
O1726      C1727   1.247       .  A
O1726     Co1741   1.915       .  S
C1727      C1848   1.451       .  S
C1728      C1844   1.430       .  S
C1729      C1777   1.481       .  S
C1730      C1798   1.483       .  S
O1731     Co1739   1.979   1_554  S
O1732      C1745   1.279       .  A
O1732     Co1740   2.013       .  S
O1733      C1746   1.274       .  A
O1733     Co1741   2.042       .  S
O1734      C1747   1.263   1_655  A
O1734     Co1742   1.980       .  S
O1735     Co1740   2.047       .  S
O1736     Co1739   1.960       .  S
O1737      C1744   1.254       .  A
O1737     Co1742   1.967       .  S
O1738     Co1741   1.992       .  S
Co1740     O1743   2.025       .  S
C1744      C1782   1.474       .  S
C1745      C1794   1.476       .  S
C1746      C1824   1.421       .  S
C1747      C1817   1.456       .  S
O1748      C1756   1.263       .  A
O1748     Co1768   1.972       .  S
O1749      C1757   1.271       .  A
O1749     Co1769   2.044       .  S
O1750     Co1770   2.038       .  S
O1751      C1759   1.260       .  A
O1751     Co1771   1.971       .  S
O1752      C1758   1.297       .  A
O1752     Co1769   2.106       .  S
O1753     Co1768   1.988   1_554  S
O1754      C1757   1.255       .  A
O1754     Co1771   1.974       .  S
O1755      C1756   1.272       .  A
O1755     Co1770   2.025       .  S
C1756      C1837   1.443       .  S
C1757      C1836   1.459       .  S
C1758      C1789   1.462       .  S
C1759      C1778   1.480       .  S
O1760     Co1768   2.039       .  S
O1761      C1774   1.267       .  A
O1761     Co1769   1.880       .  S
O1762      C1775   1.263       .  A
O1762     Co1770   1.981       .  S
O1763      C1776   1.275       .  A
O1763     Co1771   2.031       .  S
O1764      C1776   1.260       .  A
O1764     Co1769   1.966       .  S
O1765      C1775   1.273       .  A
O1765     Co1768   2.038       .  S
O1766      C1773   1.273       .  A
O1766     Co1771   2.011       .  S
O1767     Co1770   1.981       .  S
Co1769     O1772   2.012       .  S
Co1771     O1772   2.036       .  S
C1773      C1786   1.456       .  S
C1774      C1781   1.463       .  S
C1775      C1816   1.459       .  S
C1776      C1809   1.437       .  S
C1777      H1779   1.087       .  S
C1777      C1778   1.348       .  D
C1781      C1782   1.342       .  D
C1782      H1784   1.087       .  S
C1785      C1786   1.339       .  D
C1786      H1788   1.087       .  S
C1789      H1791   1.087       .  S
C1789      C1790   1.335       .  D
C1793      C1794   1.344       .  D
C1794      H1796   1.087       .  S
C1797      H1799   1.087       .  S
C1797      C1798   1.338       .  D
C1801      C1802   1.209       .  T
C1802      C1803   1.419       .  S
C1803      C1804   1.211       .  T
C1805      C1806   1.199       .  T
C1806      C1807   1.401       .  S
C1807      C1808   1.198       .  T
C1809      C1810   1.207       .  T
C1810      C1811   1.414       .  S
C1811      C1812   1.206       .  T
C1813      C1814   1.220       .  T
C1814      C1815   1.435       .  S
C1815      C1816   1.220       .  T
C1817      C1818   1.218       .  T
C1819      C1820   1.218       .  T
C1821      C1822   1.199       .  T
C1822      C1823   1.401       .  S
C1823      C1824   1.198       .  T
C1825      C1826   1.209       .  T
C1826      C1827   1.419       .  S
C1827      C1828   1.210       .  T
C1829      C1830   1.208       .  T
C1830      C1831   1.415       .  S
C1831      C1832   1.208       .  T
C1833      C1834   1.220       .  T
C1834      C1835   1.436       .  S
C1835      C1836   1.221       .  T
C1837      C1838   1.210       .  T
C1838      C1839   1.419       .  S
C1839      C1840   1.210       .  T
C1842      C1843   1.407       .  S
C1843      C1844   1.203       .  T
C1845      C1846   1.214       .  T
C1846      C1847   1.427       .  S
C1847      C1848   1.215       .  T
