geometry optimzed in LAMMPS
_audit_creation_date              2020-11-30 
_audit_creation_method            'lammps2cif' 
_symmetry_space_group_name_H-M    'P1' 
_symmetry_Int_Tables_number       1 
_symmetry_cell_setting            triclinic 
loop_ 
_symmetry_equiv_pos_as_xyz 
  x,y,z 
_cell_length_a                    50.4836005 
_cell_length_b                    50.81117361292129 
_cell_length_c                    37.25377744237548 
_cell_angle_alpha                 90.11789179165686 
_cell_angle_beta                  90.07043106091564 
_cell_angle_gamma                 121.09727125595893 
loop_ 
_atom_site_label 
_atom_site_type_symbol 
_atom_site_fract_x 
_atom_site_fract_y 
_atom_site_fract_z 
_atom_site_charge 
C1          C  0.03515100  0.06413333  0.63230652     0.81000
N2          N  0.05631464  0.06609640  0.65647793    -0.77300
C3          C  0.05187147  0.06770216  0.69234654     0.83400
N4          N  0.02646627  0.06810254  0.70374500    -0.77300
C5          C  0.00534339  0.06631427  0.67961987     0.83500
N6          N  0.00967189  0.06399165  0.64421931    -0.79000
C7          C  0.03875026  0.39835938  0.62748535     0.81000
N8          N  0.01594704  0.37417898  0.64590396    -0.77300
C9          C  0.01324765  0.37577498  0.68211945     0.83400
N10         N  0.03373067  0.40224925  0.70002894    -0.77300
C11         C  0.05647912  0.42683509  0.68155810     0.83500
N12         N  0.05872751  0.42450868  0.64547981    -0.79000
C13         C  0.45205598  0.46977578  0.85219983     0.81000
N14         N  0.48337636  0.48679673  0.85441923    -0.77300
C15         C  0.00603304  0.47904891  0.87224696     0.83400
N16         N  0.48456191  0.44194463  0.86549896    -0.77300
C17         C  0.45332176  0.42506359  0.86330836     0.83500
N18         N  0.43710550  0.43890315  0.85617016    -0.79000
O19         O  0.33138591  0.02984222  0.74804652    -0.84600
O20         O  0.37817773  0.08820632  0.76254236    -0.81600
C21         C  0.40077911  0.10987163  0.77900197     0.98900
O22         O  0.42118997  0.10585693  0.79334242    -0.81700
O23         O  0.39405648  0.06720486  0.85170284    -0.84300
C24         C  0.37611550  0.04284662  0.86865278     1.03400
O25         O  0.36574997  0.01695267  0.85407489    -0.77100
O26         O  0.32545382  0.01592940  0.80450386    -0.77300
C27         C  0.31591199  0.02290192  0.77694459     1.03400
O28         O  0.37719829  0.01708994  0.71825644    -0.84600
O29         O  0.42240395  0.07720543  0.72767877    -0.81600
C30         C  0.44514846  0.07558734  0.73901829     0.98900
O31         O  0.44596977  0.06812473  0.77109038    -0.81700
O32         O  0.42331246  0.03345612  0.83174529    -0.84300
C33         C  0.41295009  0.00614933  0.82119245     1.03400
O34         O  0.38855804  0.99207284  0.80264127    -0.77100
O35         O  0.34808818  0.47723894  0.75433654    -0.77200
C36         C  0.34200038  0.47777171  0.72165267     1.03300
Cr37       Cr  0.37777908  0.05223130  0.74235072     1.93700
Cr38       Cr  0.41854638  0.06687014  0.80998610     1.93200
Cr39       Cr  0.35766953  0.00497996  0.80263702     1.39100
O40         O  0.38480501  0.04153824  0.78501973    -1.22300
O41         O  0.38880651  0.22908838  0.76139209    -0.84600
O42         O  0.34098769  0.23695367  0.74811546    -0.81600
C43         C  0.32224983  0.22500445  0.77423275     0.98900
O44         O  0.32896332  0.23775008  0.80470207    -0.81700
O45         O  0.36425883  0.27225854  0.86275066    -0.84300
C46         C  0.37678455  0.25882762  0.87704718     1.03400
O47         O  0.39516083  0.25412785  0.85915610    -0.77100
O48         O  0.42660371  0.24993832  0.80069646    -0.77300
C49         C  0.40802828  0.22739330  0.78110054     1.03400
O50         O  0.43377515  0.29148518  0.73806370    -0.84600
O51         O  0.38602280  0.30082158  0.72995312    -0.81600
C52         C  0.36401643  0.30464734  0.73709780     0.98900
O53         O  0.34787251  0.29270164  0.76489570    -0.81700
O54         O  0.38881650  0.32562558  0.81941808    -0.84300
C55         C  0.41186191  0.33535375  0.83995160     1.03400
O56         O  0.42305522  0.31894184  0.84837279    -0.77100
O57         O  0.45215770  0.31586327  0.78901151    -0.77200
C58         C  0.45472830  0.31416691  0.75565284     1.03300
Cr59       Cr  0.38772311  0.26552850  0.74816212     1.93700
Cr60       Cr  0.35985366  0.28157758  0.81148038     1.93200
Cr61       Cr  0.42166366  0.28391744  0.82169035     1.39100
O62         O  0.38982127  0.27684417  0.79384082    -1.22300
O63         O  0.20436772  0.08574954  0.75434104    -0.84600
O64         O  0.18912365  0.02531756  0.75454745    -0.81600
C65         C  0.20204291  0.02459412  0.78337861     0.98900
O66         O  0.19008399  0.02421983  0.81320734    -0.81700
O67         O  0.15751797  0.03570105  0.86361258    -0.84300
C68         C  0.17278141  0.06408845  0.87098952     1.03400
O69         O  0.17590417  0.08363867  0.84796802    -0.77100
O70         O  0.18127935  0.10751842  0.78021929    -0.77300
C71         C  0.20523658  0.10944025  0.76647731     1.03400
O72         O  0.14478245  0.06790980  0.72518767    -0.84600
O73         O  0.12651131  0.00705805  0.73335751    -0.81600
C74         C  0.11297554  0.48963251  0.74911458     0.98900
O75         O  0.12771962  0.48928261  0.77633663    -0.81700
O76         O  0.10194481  0.50739578  0.82813445    -0.84300
C77         C  0.09308724  0.01545049  0.83693481     1.03400
O78         O  0.11030027  0.04436888  0.83850797    -0.77100
O79         O  0.11513940  0.06492500  0.76958850    -0.77200
C80         C  0.12095160  0.06735015  0.73647025     1.03300
Cr81       Cr  0.16523679  0.04626529  0.74525590     1.93700
Cr82       Cr  0.14628734  0.01270329  0.81723748     1.93200
Cr83       Cr  0.14624370  0.07295798  0.80752350     1.39100
O84         O  0.15284495  0.04423809  0.79025276    -1.22300
C85         C  0.33510174  0.37489773  0.64122057     0.81000
N86         N  0.33472994  0.39916058  0.65671186    -0.77300
C87         C  0.33535894  0.40167714  0.69325662     0.83400
N88         N  0.33645793  0.38025981  0.71369539    -0.77300
C89         C  0.33733658  0.35659808  0.69856958     0.83500
N90         N  0.33650399  0.35384882  0.66231682    -0.79000
C91         C  0.19292592  0.40981941  0.29824950     0.81000
N92         N  0.17114982  0.40929380  0.32019753    -0.77300
C93         C  0.17252373  0.40609860  0.35630956     0.83400
N94         N  0.19615950  0.40383601  0.37031719    -0.77300
C95         C  0.21809499  0.40428106  0.34857763     0.83500
N96         N  0.21629744  0.40726138  0.31260547    -0.79000
C97         C  0.52665573  0.23331148  0.30019998     0.81000
N98         N  0.52872875  0.20973417  0.31412648    -0.77300
C99         C  0.52612615  0.20427868  0.34990176     0.83400
N100        N  0.52184513  0.22305598  0.37220045    -0.77300
C101        C  0.52007425  0.24702753  0.35863741     0.83500
N102        N  0.52234978  0.25192739  0.32256187    -0.79000
C103        C  0.11298101  0.29475614  0.52915702     0.81000
N104        N  0.09651999  0.26375738  0.53188478    -0.77300
C105        C  0.11125820  0.24814722  0.53714295     0.83400
N106        N  0.14256433  0.26344771  0.53854515    -0.77300
C107        C  0.15908085  0.29449811  0.53593490     0.83500
N108        N  0.14431127  0.31014004  0.53061680    -0.79000
O109        O  0.49448493  0.37767059  0.41834599    -0.84600
O110        O  0.05389365  0.41968635  0.40739378    -0.81600
C111        C  0.06051671  0.43556580  0.43582533     0.98900
O112        O  0.06514473  0.42586857  0.46479310    -0.81700
O113        O  0.05546740  0.38411633  0.51734097    -0.84300
C114        C  0.02777442  0.37144990  0.52843071     1.03400
O115        O  0.00549317  0.35400037  0.50800945    -0.77100
O116        O  0.47591326  0.33329574  0.44530034    -0.77300
C117        C  0.47203532  0.35401368  0.43199783     1.03400
O118        O  0.00613842  0.32985370  0.38513333    -0.84600
O119        O  0.06727722  0.37434740  0.38168514    -0.81600
C120        C  0.09457545  0.39198456  0.39239386     0.98900
O121        O  0.09980207  0.40549434  0.42254535    -0.81700
O122        O  0.08531090  0.36099243  0.47249229    -0.84300
C123        C  0.06947606  0.33693270  0.49041523     1.03400
O124        O  0.04091397  0.32585039  0.49539678    -0.77100
O125        O  0.01392672  0.30619657  0.42907442    -0.77200
C126        C  0.00903202  0.30796480  0.39620006     1.03300
Cr127      Cr  0.03081081  0.37391850  0.40136219     1.93700
Cr128      Cr  0.07358929  0.39214686  0.46746281     1.93200
Cr129      Cr  0.01038212  0.33161110  0.46730531     1.39100
O130        O  0.03821581  0.36603664  0.44557205    -1.22300
O131        O  0.04175563  0.05740180  0.41735955    -0.84600
O132        O  0.49013266  0.06878985  0.41691824    -0.81600
C133        C  0.47605732  0.05693326  0.44601302     0.98900
O134        O  0.48806871  0.06936252  0.47566165    -0.81700
O135        O  0.01835765  0.09461778  0.52344183    -0.84300
C136        C  0.02987854  0.07902656  0.53381113     1.03400
O137        O  0.04957168  0.07717969  0.51494475    -0.77100
O138        O  0.08144544  0.07900269  0.45414453    -0.77300
C139        C  0.06238390  0.05630506  0.43519722     1.03400
O140        O  0.08665867  0.12093122  0.39795259    -0.84600
O141        O  0.03912902  0.13208580  0.39384837    -0.81600
C142        C  0.01904709  0.13769281  0.40523107     0.98900
O143        O  0.00221201  0.12292720  0.43146519    -0.81700
O144        O  0.04335757  0.15171655  0.48646741    -0.84300
C145        C  0.06620562  0.15976307  0.50680649     1.03400
O146        O  0.07678676  0.14241990  0.51245262    -0.77100
O147        O  0.10504082  0.14452308  0.44941949    -0.77200
C148        C  0.10777457  0.14318676  0.41601466     1.03300
Cr149      Cr  0.04051287  0.09500400  0.40780884     1.93700
Cr150      Cr  0.01394492  0.10828167  0.47491092     1.93200
Cr151      Cr  0.07561527  0.11017781  0.48033421     1.39100
O152        O  0.04330027  0.10420837  0.45434175    -1.22300
O153        O  0.35482671  0.41297432  0.42015774    -0.84600
O154        O  0.34271573  0.35406846  0.41472718    -0.81600
C155        C  0.35541827  0.34983043  0.44184360     0.98900
O156        O  0.34379910  0.34633077  0.47274358    -0.81700
O157        O  0.31305667  0.35470112  0.52964832    -0.84300
C158        C  0.32866157  0.38263792  0.53928278     1.03400
O159        O  0.33375564  0.40344955  0.51729124    -0.77100
O160        O  0.33440033  0.43259678  0.45492388    -0.77300
C161        C  0.35699163  0.43578228  0.43660603     1.03400
O162        O  0.29118971  0.39289249  0.39848939    -0.84600
O163        O  0.27787573  0.33285619  0.39785034    -0.81600
C164        C  0.27162897  0.30718507  0.41040800     0.98900
O165        O  0.28560702  0.30631074  0.43813725    -0.81700
O166        O  0.25678475  0.32090294  0.48997996    -0.84300
C167        C  0.24898789  0.33668016  0.50821838     1.03400
O168        O  0.26742718  0.36509315  0.51341209    -0.77100
O169        O  0.26837225  0.39039787  0.44954094    -0.77200
C170        C  0.26993831  0.39344873  0.41608695     1.03300
Cr171      Cr  0.31585808  0.37283500  0.41138512     1.93700
Cr172      Cr  0.30048723  0.33479455  0.48075204     1.93200
Cr173      Cr  0.30155127  0.39571884  0.48160150     1.39100
O174        O  0.30614618  0.36794797  0.45779991    -1.22300
C175        C  0.19700908  0.21415751  0.29078867     0.81000
N176        N  0.21684940  0.24116393  0.30754664    -0.77300
C177        C  0.21391456  0.24497645  0.34322028     0.83400
N178        N  0.19025392  0.22152465  0.36212276    -0.77300
C179        C  0.16978821  0.19454807  0.34518518     0.83500
N180        N  0.17364872  0.19113817  0.30976443    -0.79000
C181        C  0.37939574  0.06397975  0.96769003     0.81000
N182        N  0.40226876  0.08465775  0.98944942    -0.77300
C183        C  0.39942625  0.08172040  0.02563599     0.83400
N184        N  0.37339409  0.05806096  0.04003001    -0.77300
C185        C  0.35007702  0.03722213  0.01865616     0.83500
N186        N  0.35321723  0.04015442  0.98236950    -0.79000
C187        C  0.39052499  0.24969926  0.97692253     0.81000
N188        N  0.41288209  0.24866967  0.99647028    -0.77300
C189        C  0.41259914  0.24997312  0.03296953     0.83400
N190        N  0.39025153  0.25229308  0.04957630    -0.77300
C191        C  0.36801706  0.25337410  0.03086664     0.83500
N192        N  0.36789915  0.25194577  0.99432403    -0.79000
C193        C  0.30693250  0.14181726  0.19492394     0.81000
N194        N  0.28925905  0.11125471  0.20165164    -0.77300
C195        C  0.30289440  0.09441520  0.20601116     0.83400
N196        N  0.33385627  0.10782400  0.20220094    -0.77300
C197        C  0.35136035  0.13822420  0.19528185     0.83500
N198        N  0.33791025  0.15516708  0.19116727    -0.79000
O199        O  0.05384428  0.24844567  0.08449109    -0.84600
O200        O  0.03778644  0.18887497  0.07029449    -0.81600
C201        C  0.04679994  0.18162717  0.09815865     0.98900
O202        O  0.03188547  0.17587478  0.12699575    -0.81700
O203        O  0.49919633  0.18646382  0.18785361    -0.84300
C204        C  0.01318289  0.20907287  0.19365816     1.03400
O205        O  0.52212658  0.23671268  0.18215298    -0.77100
O206        O  0.02827015  0.26615864  0.11313535    -0.77300
C207        C  0.05289499  0.27040340  0.09885498     1.03400
O208        O  0.50212830  0.24192895  0.05945246    -0.84600
O209        O  0.48243415  0.18158828  0.05213811    -0.81600
C210        C  0.47048652  0.15405396  0.06148389     0.98900
O211        O  0.47751994  0.14700063  0.09111297    -0.81700
O212        O  0.44640607  0.15993087  0.14105009    -0.84300
C213        C  0.43891302  0.17551845  0.16001441     1.03400
O214        O  0.45795934  0.20324185  0.16736168    -0.77100
O215        O  0.46839250  0.23220071  0.10205021    -0.77200
C216        C  0.47737838  0.23980580  0.07006852     1.03300
Cr217      Cr  0.01583301  0.21202162  0.06652910     1.93700
Cr218      Cr  0.48976928  0.17061000  0.13751459     1.93200
Cr219      Cr  0.49573921  0.23376327  0.14099066     1.39100
O220        O  0.50168789  0.20673529  0.11793127    -1.22300
O221        O  0.22261048  0.39420514  0.08423947    -0.84600
O222        O  0.17634900  0.40497217  0.07285832    -0.81600
C223        C  0.15936522  0.39233764  0.10001044     0.98900
O224        O  0.16642064  0.40534037  0.13018322    -0.81700
O225        O  0.20287496  0.43749521  0.18743536    -0.84300
C226        C  0.21414935  0.42171266  0.19832108     1.03400
O227        O  0.23185623  0.41770085  0.17837625    -0.77100
O228        O  0.26354616  0.41667834  0.11883799    -0.77300
C229        C  0.24372561  0.39340885  0.10116349     1.03400
O230        O  0.26840839  0.45591035  0.06070598    -0.84600
O231        O  0.22179979  0.46804938  0.05455967    -0.81600
C232        C  0.20147029  0.47389358  0.06401198     0.98900
O233        O  0.18546531  0.46161758  0.09189442    -0.81700
O234        O  0.22702462  0.49220654  0.14587325    -0.84300
C235        C  0.25579737  0.00488510  0.18345996     1.03400
O236        O  0.26049567  0.48347689  0.17304901    -0.77100
O237        O  0.28797968  0.48181548  0.11072221    -0.77200
C238        C  0.29004867  0.47855706  0.07756566     1.03300
Cr239      Cr  0.22267776  0.43175877  0.07156425     1.93700
Cr240      Cr  0.19753629  0.44864648  0.13714071     1.93200
Cr241      Cr  0.25849689  0.44938260  0.14312782     1.39100
O242        O  0.22639381  0.44341217  0.11715345    -1.22300
O243        O  0.18020251  0.19575440  0.07135936    -0.84600
O244        O  0.22314257  0.25664013  0.08307273    -0.81600
C245        C  0.24557471  0.28028873  0.09712167     0.98900
O246        O  0.26812536  0.27914022  0.11020146    -0.81700
O247        O  0.24361294  0.24690051  0.17292706    -0.84300
C248        C  0.22648840  0.22460537  0.19311771     1.03400
O249        O  0.21574818  0.19714304  0.18249080    -0.77100
O250        O  0.17416393  0.18563865  0.12884850    -0.77300
C251        C  0.16388744  0.18864544  0.09938056     1.03400
O252        O  0.22842002  0.18637322  0.04701813    -0.84600
O253        O  0.27033794  0.24803927  0.05148310    -0.81600
C254        C  0.29334079  0.24734297  0.06352427     0.98900
O255        O  0.29454947  0.24157525  0.09623071    -0.81700
O256        O  0.27513139  0.21424144  0.16238062    -0.84300
C257        C  0.26549468  0.18613584  0.15711793     1.03400
O258        O  0.24188543  0.16959716  0.13842658    -0.77100
O259        O  0.19741419  0.15337689  0.08737112    -0.77200
C260        C  0.21144845  0.15908610  0.05752369     1.03300
Cr261      Cr  0.22615935  0.22124987  0.06674263     1.93700
Cr262      Cr  0.26786162  0.24333517  0.13355262     1.93200
Cr263      Cr  0.20915256  0.17915981  0.13254525     1.39100
O264        O  0.23434892  0.21453500  0.11103304    -1.22300
C265        C  0.19486619  0.05814330  0.96810238     0.81000
N266        N  0.19884032  0.03671416  0.98466118    -0.77300
C267        C  0.20238197  0.03711395  0.02064040     0.83400
N268        N  0.20202546  0.05937811  0.04052423    -0.77300
C269        C  0.19883805  0.08156776  0.02428872     0.83500
N270        N  0.19507833  0.08085529  0.98789328    -0.79000
C271        C  0.20779369  0.13386923  0.03400476    -0.15700
C272        C  0.19939436  0.10591469  0.04680617    -0.30800
H273        H  0.21440868  0.13912426  0.00600295     0.13400
H274        H  0.19504904  0.10145976  0.07536017     0.13900
C275        C  0.27067023  0.36407248  0.11277570    -0.12600
C276        C  0.24489750  0.36484277  0.09993160     0.09600
C277        C  0.21953866  0.33764794  0.08615490    -0.12600
C278        C  0.21989858  0.31037234  0.08515997    -0.12600
C279        C  0.24566492  0.30953290  0.09781793     0.09600
C280        C  0.27108025  0.33669728  0.11165219    -0.12600
H281        H  0.29051957  0.38461283  0.12358663     0.13600
H282        H  0.19914786  0.33731708  0.07638767     0.13600
H283        H  0.19983774  0.28986115  0.07461733     0.13600
H284        H  0.29126639  0.33679503  0.12170427     0.13600
C285        C  0.18434810  0.51108092  0.05505055    -0.15700
C286        C  0.19637030  0.49489907  0.04166071    -0.30800
H287        H  0.17780553  0.50861495  0.08316625     0.13400
H288        H  0.20509963  0.49906339  0.01434233     0.13900
C289        C  0.09521699  0.19255716  0.06734879    -0.12600
C290        C  0.07528006  0.18044587  0.09694436     0.09600
C291        C  0.08382403  0.16913826  0.12630691    -0.12600
C292        C  0.11232100  0.17095563  0.12664571    -0.12600
C293        C  0.13270537  0.18406685  0.09760567     0.09600
C294        C  0.12369131  0.19433804  0.06767159    -0.12600
H295        H  0.08927945  0.20158449  0.04441773     0.13600
H296        H  0.06881041  0.15953773  0.14938355     0.13600
H297        H  0.11864672  0.16266163  0.14994860     0.13600
H298        H  0.13904617  0.20467324  0.04499643     0.13600
C299        C  0.08173961  0.32386322  0.12199953    -0.12600
C300        C  0.08007669  0.30168898  0.09809150     0.09600
C301        C  0.10400379  0.30999806  0.07320388    -0.12600
C302        C  0.12934183  0.34008577  0.07251348    -0.12600
C303        C  0.13120402  0.36195334  0.09709965     0.09600
C304        C  0.10716302  0.35362925  0.12169162    -0.12600
H305        H  0.06359613  0.31807069  0.14142824     0.13600
H306        H  0.10307962  0.29331137  0.05431238     0.13600
H307        H  0.14791688  0.34597398  0.05368638     0.13600
H308        H  0.10819550  0.37010474  0.14100895     0.13600
C309        C  0.28088817  0.17233950  0.17357640    -0.12500
C310        C  0.29266175  0.15882869  0.18543251    -0.14100
C311        C  0.28454741  0.06174013  0.20608140    -0.12500
C312        C  0.27095868  0.03488287  0.19881306    -0.14100
C313        C  0.38290212  0.15105531  0.18577546    -0.12500
C314        C  0.40859350  0.16167929  0.17439334    -0.14100
C315        C  0.34388646  0.25400357  0.05213632    -0.15700
C316        C  0.31848998  0.25244977  0.03891449    -0.30800
H317        H  0.34659031  0.25388546  0.08109881     0.13400
H318        H  0.31530173  0.25289272  0.01012609     0.13900
C319        C  0.45888790  0.24598018  0.04457291    -0.15700
C320        C  0.43440318  0.24697931  0.05616297    -0.30800
H321        H  0.46481057  0.24876572  0.01626136     0.13400
H322        H  0.42938817  0.24487783  0.08474461     0.13900
C323        C  0.32179743  0.50421078  0.02332127    -0.15700
C324        C  0.31846447  0.50194833  0.05921499    -0.30800
H325        H  0.30337751  0.48743453  0.00610569     0.13400
H326        H  0.33674652  0.51916609  0.07622169     0.13900
C327        C  0.42427537  0.10383764  0.04952705    -0.15700
C328        C  0.44806367  0.13024182  0.03712243    -0.30800
H329        H  0.42206675  0.09914717  0.07816616     0.13400
H330        H  0.44927599  0.13595798  0.00884932     0.13900
C331        C  0.20109160  0.20865070  0.25262216    -0.15700
C332        C  0.22067000  0.23103431  0.23022119    -0.30800
H333        H  0.18769524  0.18514281  0.24281084     0.13400
H334        H  0.23342628  0.25470526  0.23957399     0.13900
C335        C  0.23633436  0.27505391  0.36029355    -0.15700
C336        C  0.24785669  0.27746496  0.39358664    -0.30800
H337        H  0.24550516  0.29554416  0.34382604     0.13400
H338        H  0.24028322  0.25659172  0.40890936     0.13900
C339        C  0.44062689  0.49873053  0.41738422    -0.12600
C340        C  0.44532020  0.02862208  0.44518493     0.09600
C341        C  0.42480589  0.02130306  0.47401337    -0.12600
C342        C  0.38907571  0.49200812  0.45361415    -0.12600
C343        C  0.38634220  0.46651565  0.43506353     0.09600
C344        C  0.41251162  0.47038595  0.41675592    -0.12600
H345        H  0.46033839  0.50059501  0.40345525     0.13600
H346        H  0.43087524  0.03681222  0.49664982     0.13600
H347        H  0.36956860  0.48997036  0.46821167     0.13600
H348        H  0.41145526  0.45130800  0.40240582     0.13600
C349        C  0.14244206  0.16877453  0.36355739    -0.15700
C350        C  0.13626990  0.16841508  0.39871656    -0.30800
H351        H  0.12641402  0.14933889  0.34700717     0.13400
H352        H  0.15237756  0.18760384  0.41550829     0.13900
C353        C  0.43334271  0.36638661  0.40751364    -0.12600
C354        C  0.44105749  0.35070450  0.43255744     0.09600
C355        C  0.41958237  0.33331260  0.45940983    -0.12600
C356        C  0.39157976  0.33268538  0.46208768    -0.12600
C357        C  0.38409157  0.34880060  0.43743030     0.09600
C358        C  0.40499082  0.36512779  0.40965285    -0.12600
H359        H  0.44940215  0.37990397  0.38645525     0.13600
H360        H  0.42493072  0.32110840  0.47915842     0.13600
H361        H  0.37585894  0.31978693  0.48368231     0.13600
H362        H  0.39990531  0.37784596  0.39035699     0.13600
C363        C  0.08008221  0.48845642  0.46059339    -0.12600
C364        C  0.06248698  0.46555226  0.43500921     0.09600
C365        C  0.04548738  0.47092697  0.40933722    -0.12600
C366        C  0.04546643  0.49835308  0.40968361    -0.12600
C367        C  0.06393707  0.02797066  0.43448959     0.09600
C368        C  0.07699286  0.02086823  0.46347358    -0.12600
H369        H  0.09337652  0.48481584  0.48069382     0.13600
H370        H  0.03150240  0.45355198  0.38954719     0.13600
H371        H  0.03167858  0.50159300  0.38988376     0.13600
H372        H  0.08697883  0.03651705  0.48600599     0.13600
C373        C  0.09433975  0.21559217  0.53309777    -0.12500
C374        C  0.08079459  0.18928261  0.52340737    -0.14100
C375        C  0.19186715  0.30994907  0.53167957    -0.12500
C376        C  0.21857314  0.32228707  0.52300444    -0.14100
C377        C  0.09754621  0.31039318  0.51852812    -0.12500
C378        C  0.08439886  0.32244968  0.50635478    -0.14100
C379        C  0.01502805  0.16198778  0.38918801    -0.15700
C380        C  0.52846821  0.17816381  0.36360583    -0.30800
H381        H  0.00110100  0.16894103  0.40403422     0.13400
H382        H  0.54001688  0.16965040  0.34676857     0.13900
C383        C  0.51695317  0.26813882  0.38345758    -0.15700
C384        C  0.00763815  0.28521028  0.36990512    -0.30800
H385        H  0.51900066  0.26514829  0.41200057     0.13400
H386        H  0.00369044  0.28796354  0.34185327     0.13900
C387        C  0.52524904  0.21586187  0.23832310    -0.15700
C388        C  0.52634885  0.23708688  0.26084598    -0.30800
H389        H  0.02430193  0.19332606  0.24272882     0.13400
H390        H  0.52340643  0.25540584  0.25050483     0.13900
C391        C  0.24609056  0.39789954  0.39890962    -0.15400
C392        C  0.24368728  0.40120082  0.36352780    -0.30800
H393        H  0.22911984  0.39788378  0.41684792     0.13400
H394        H  0.26042930  0.40123011  0.34521314     0.13900
C395        C  0.14839003  0.40456549  0.38051427    -0.15700
C396        C  0.12016839  0.39698386  0.36842732    -0.30800
H397        H  0.15318416  0.40763565  0.40915167     0.13400
H398        H  0.11472660  0.39170195  0.34012673     0.13900
C399        C  0.19219416  0.41521230  0.25935171    -0.15700
C400        C  0.20944100  0.41049449  0.23567047    -0.30800
H401        H  0.17832621  0.42465511  0.25031760     0.13400
H402        H  0.22258732  0.40024480  0.24466169     0.13900
C403        C  0.33159069  0.36919393  0.60207124    -0.15700
C404        C  0.33778413  0.39085467  0.57738789    -0.30800
H405        H  0.32289351  0.34568795  0.59334188     0.13400
H406        H  0.34743872  0.41460411  0.58571079     0.13900
C407        C  0.18544295  0.07377342  0.90777593    -0.15700
C408        C  0.18727033  0.05367193  0.92950389    -0.30800
H409        H  0.19200890  0.09655945  0.91736322     0.13400
H410        H  0.18185035  0.03155579  0.91860721     0.13900
C411        C  0.26704314  0.19063488  0.79189860    -0.12600
C412        C  0.29176541  0.19632068  0.76940805     0.09600
C413        C  0.28728331  0.17380835  0.74406272    -0.12600
C414        C  0.25901826  0.14561938  0.74247518    -0.12600
C415        C  0.23451788  0.13981085  0.76558312     0.09600
C416        C  0.23874596  0.16293142  0.78976780    -0.12600
H417        H  0.26968825  0.20758978  0.81153267     0.13600
H418        H  0.30596188  0.17754778  0.72644661     0.13600
H419        H  0.25643790  0.12826644  0.72350037     0.13600
H420        H  0.22046191  0.15920955  0.80804456     0.13600
C421        C  0.37142133  0.25153258  0.91586709    -0.15700
C422        C  0.39196117  0.24952079  0.93702795    -0.30800
H423        H  0.35220808  0.25209799  0.92813692     0.13400
H424        H  0.41178233  0.25003867  0.92487856     0.13900
C425        C  0.34041555  0.33508578  0.72199226    -0.15700
C426        C  0.35703519  0.32261940  0.71206240    -0.30800
H427        H  0.33182275  0.33217376  0.74930715     0.13400
H428        H  0.36776022  0.32764437  0.68571084     0.13900
C429        C  0.42577241  0.16456322  0.80175373    -0.12600
C430        C  0.40353629  0.14034117  0.78021732     0.09600
C431        C  0.38355858  0.14535683  0.75908568    -0.12600
C432        C  0.38567365  0.17371995  0.75924522    -0.12600
C433        C  0.40772763  0.19805530  0.78072749     0.09600
C434        C  0.42777948  0.19320909  0.80211363    -0.12600
H435        H  0.44141992  0.16130554  0.81844544     0.13600
H436        H  0.36620190  0.12732462  0.74212707     0.13600
H437        H  0.36963921  0.17638855  0.74254178     0.13600
H438        H  0.44480957  0.21140575  0.81915703     0.13600
C439        C  0.27428343  0.02844904  0.74751253    -0.12600
C440        C  0.28642270  0.02268963  0.77844092     0.09600
C441        C  0.27056218  0.01761232  0.81113910    -0.12600
C442        C  0.24318085  0.01820707  0.81282235    -0.12600
C443        C  0.23091047  0.02368069  0.78179709     0.09600
C444        C  0.24680327  0.02882874  0.74914813    -0.12600
H445        H  0.28417696  0.55036239  0.71317887     0.13600
H446        H  0.27943190  0.01339934  0.83556048     0.13600
H447        H  0.23159398  0.01431483  0.83841473     0.13600
H448        H  0.23795618  0.55369693  0.72180413     0.13600
C449        C  0.36758434  0.04320341  0.90632755    -0.15700
C450        C  0.38456277  0.06678980  0.92853215    -0.30800
H451        H  0.34858073  0.02189399  0.91702963     0.13400
H452        H  0.40467135  0.08748239  0.91830162     0.13900
C453        C  0.33627754  0.42746180  0.71263081    -0.15700
C454        C  0.33683438  0.45191812  0.69804317    -0.30800
H455        H  0.33781746  0.42646088  0.74166652     0.13400
H456        H  0.33497562  0.45352657  0.66918050     0.13900
C457        C  0.43811090  0.39247911  0.86136906    -0.12500
C458        C  0.42577908  0.36575218  0.85384481    -0.14100
C459        C  0.06561998  0.51072990  0.86186584    -0.12500
C460        C  0.03890183  0.49675469  0.87039185    -0.14100
C461        C  0.42893449  0.99089170  0.83175922    -0.12500
C462        C  0.43502536  0.48360411  0.84079832    -0.14100
C463        C  0.48681243  0.34310078  0.70212573    -0.15700
C464        C  0.48272137  0.33991782  0.73795819    -0.30800
H465        H  0.96983166  0.33039319  0.68377311     0.13400
H466        H  0.49975902  0.35799764  0.75529292     0.13900
C467        C  0.08900426  0.45964248  0.73297718    -0.15700
C468        C  0.07842042  0.45684963  0.69915092    -0.30800
H469        H  0.08107650  0.43899963  0.74887282     0.13400
H470        H  0.08812139  0.47726429  0.68246865     0.13900
C471        C  0.04346763  0.39618748  0.58849424    -0.15700
C472        C  0.02139172  0.37528941  0.56642901    -0.30800
H473        H  0.06614509  0.41240089  0.57765317     0.13400
H474        H  0.99826157  0.35996694  0.57674015     0.13900
C475        C  0.10009955  0.06926903  0.70999998    -0.15700
C476        C  0.07390627  0.06840424  0.71926666    -0.30800
H477        H  0.10608131  0.07036730  0.68181436     0.13400
H478        H  0.06800458  0.06747454  0.74745875     0.13900
C479        C  0.49443316  0.07875350  0.72320194    -0.15700
C480        C  0.47034244  0.08170821  0.71370619    -0.30800
H481        H  0.95706141  0.05468490  0.67402126     0.13400
H482        H  0.46791012  0.08682083  0.68601935     0.13900
C483        C  0.04141418  0.06587227  0.59326786    -0.15700
C484        C  0.02092267  0.06516496  0.56959735    -0.30800
H485        H  0.06440537  0.07200114  0.58442572     0.13400
H486        H  0.99840818  0.06015013  0.57896896     0.13900
C487        C  0.03312823  0.58864163  0.63444688     0.81000
N488        N  0.05724177  0.58651768  0.64758447    -0.77300
C489        C  0.06113605  0.58554421  0.68367273     0.83400
N490        N  0.04037082  0.58614763  0.70639737    -0.77300
C491        C  0.01625693  0.58813592  0.69364769     0.83500
N492        N  0.01288080  0.58961100  0.65763708    -0.79000
C493        C  0.03784729  0.89813755  0.62935379     0.81000
N494        N  0.01377759  0.87360878  0.64578143    -0.77300
C495        C  0.01042707  0.87326570  0.68202165     0.83400
N496        N  0.03158762  0.89803158  0.70194477    -0.77300
C497        C  0.05563412  0.92276413  0.68520384     0.83500
N498        N  0.05842614  0.92250183  0.64914379    -0.79000
C499        C  0.46117555  0.96586298  0.85178247     0.81000
N500        N  0.49238450  0.98369878  0.85513807    -0.77300
C501        C  0.00253686  0.97302838  0.86184701     0.83400
N502        N  0.49522478  0.93967262  0.86558647    -0.77300
C503        C  0.46411987  0.92190356  0.86231236     0.83500
N504        N  0.44710385  0.93492718  0.85494697    -0.79000
O505        O  0.32832703  0.54478989  0.74134090    -0.84600
O506        O  0.38877837  0.59063255  0.73199302    -0.81600
C507        C  0.39618155  0.60679029  0.76039860     0.98900
O508        O  0.39811035  0.59585720  0.78988859    -0.81700
O509        O  0.39030784  0.55394793  0.84180306    -0.84300
C510        C  0.36277847  0.54118288  0.85324961     1.03400
O511        O  0.34038659  0.52497933  0.83257656    -0.77100
O512        O  0.30806603  0.50085345  0.76997046    -0.77300
C513        C  0.30569890  0.52252304  0.75680470     1.03400
O514        O  0.34073664  0.50026343  0.70920651    -0.84600
O515        O  0.40188304  0.54483096  0.70642982    -0.81600
C516        C  0.42880385  0.56316233  0.71764337     0.98900
O517        O  0.43307995  0.57761577  0.74687543    -0.81700
O518        O  0.42030071  0.53254134  0.79544656    -0.84300
C519        C  0.40500377  0.50844733  0.81349523     1.03400
O520        O  0.37647939  0.49717130  0.81939601    -0.77100
O521        O  0.34279345  0.98387221  0.75528116    -0.77200
C522        C  0.35847189  0.98967708  0.72690998     1.03300
Cr523      Cr  0.36537839  0.54453798  0.72564209     1.93700
Cr524      Cr  0.40768272  0.56306611  0.79180010     1.93200
Cr525      Cr  0.34521824  0.50262039  0.79212041     1.39100
O526        O  0.37263212  0.53677194  0.76995188    -1.22300
O527        O  0.39565274  0.73056879  0.74379434    -0.84600
O528        O  0.34631828  0.73833269  0.74121954    -0.81600
C529        C  0.32937472  0.72618367  0.76888477     0.98900
O530        O  0.33927976  0.73763698  0.79957916    -0.81700
O531        O  0.38029408  0.76959083  0.85498646    -0.84300
C532        C  0.39357952  0.75524257  0.86430326     1.03400
O533        O  0.40960738  0.75098652  0.84195847    -0.77100
O534        O  0.43686207  0.75132179  0.77833904    -0.77300
C535        C  0.41668862  0.72900795  0.75971989     1.03400
O536        O  0.43882764  0.79459514  0.72263335    -0.84600
O537        O  0.39028257  0.80303964  0.72450916    -0.81600
C538        C  0.36969892  0.80735026  0.73652806     0.98900
O539        O  0.35559476  0.79446636  0.76516552    -0.81700
O540        O  0.40071727  0.82468053  0.81582463    -0.84300
C541        C  0.42475386  0.83346637  0.83419947     1.03400
O542        O  0.43630151  0.81668971  0.83831105    -0.77100
O543        O  0.46047403  0.81705808  0.77369577    -0.77200
C544        C  0.46094841  0.81664317  0.74005849     1.03300
Cr545      Cr  0.39332712  0.76732728  0.73667068     1.93700
Cr546      Cr  0.37109935  0.78106198  0.80697063     1.93200
Cr547      Cr  0.43304883  0.78332112  0.80588115     1.39100
O548        O  0.39914024  0.77698159  0.78309289    -1.22300
O549        O  0.19911682  0.59393576  0.75136944    -0.84600
O550        O  0.18331536  0.53381188  0.74996137    -0.81600
C551        C  0.19673782  0.53008436  0.77663078     0.98900
O552        O  0.18708503  0.52881462  0.80821311    -0.81700
O553        O  0.15841142  0.53917573  0.86630394    -0.84300
C554        C  0.17481789  0.56695364  0.87601588     1.03400
O555        O  0.18073640  0.58791230  0.85382607    -0.77100
O556        O  0.18476349  0.61684521  0.79011796    -0.77300
C557        C  0.20484524  0.61759562  0.76898283     1.03400
O558        O  0.13567936  0.57597179  0.73282884    -0.84600
O559        O  0.11897780  0.51510193  0.73618381    -0.81600
C560        C  0.11868395  0.98191453  0.74870104     0.98900
O561        O  0.13245677  0.98188607  0.77704660    -0.81700
O562        O  0.10232053  0.99890758  0.82343981    -0.84300
C563        C  0.09530829  0.52443955  0.84556591     1.03400
O564        O  0.11409377  0.55309867  0.84868049    -0.77100
O565        O  0.11755515  0.58000275  0.78468062    -0.77200
C566        C  0.11698187  0.58018124  0.75095402     1.03300
Cr567      Cr  0.15861209  0.55459112  0.74652082     1.93700
Cr568      Cr  0.14462427  0.51911257  0.81766354     1.93200
Cr569      Cr  0.14956427  0.58207233  0.81702541     1.39100
O570        O  0.15112923  0.55224049  0.79366779    -1.22300
C571        C  0.34710206  0.88482250  0.65016025     0.81000
N572        N  0.34674421  0.90899731  0.66552338    -0.77300
C573        C  0.34694728  0.91143925  0.70198841     0.83400
N574        N  0.34769613  0.88988629  0.72278722    -0.77300
C575        C  0.34861609  0.86617298  0.70750532     0.83500
N576        N  0.34797520  0.86365671  0.67125983    -0.79000
C577        C  0.19510907  0.90838116  0.30989695     0.81000
N578        N  0.17319828  0.90896130  0.33030580    -0.77300
C579        C  0.17447257  0.90817163  0.36668316     0.83400
N580        N  0.19819874  0.90713792  0.38255508    -0.77300
C581        C  0.22030443  0.90657562  0.36213484     0.83500
N582        N  0.21861821  0.90723775  0.32591723    -0.79000
C583        C  0.51228955  0.72307276  0.29215868     0.81000
N584        N  0.51325174  0.69878649  0.30664864    -0.77300
C585        C  0.51266257  0.69506819  0.34308255     0.83400
N586        N  0.51123329  0.71597148  0.36467394    -0.77300
C587        C  0.51014659  0.74007400  0.35064022     0.83500
N588        N  0.51068651  0.74346247  0.31441518    -0.79000
C589        C  0.11639966  0.79942052  0.52128649     0.81000
N590        N  0.10208141  0.76855930  0.51632924    -0.77300
C591        C  0.11830627  0.75418321  0.51997275     0.83400
N592        N  0.14882436  0.77063523  0.52787779    -0.77300
C593        C  0.16318386  0.80138116  0.53287486     0.83500
N594        N  0.14711801  0.81594210  0.52908090    -0.79000
O595        O  0.49328866  0.87658800  0.40907003    -0.84600
O596        O  0.05512507  0.92571515  0.40907378    -0.81600
C597        C  0.06112139  0.94169720  0.43737560     0.98900
O598        O  0.06551746  0.93214493  0.46669799    -0.81700
O599        O  0.05606992  0.89019162  0.51940677    -0.84300
C600        C  0.02817080  0.87732692  0.52972694     1.03400
O601        O  0.00633832  0.86038956  0.50879433    -0.77100
O602        O  0.47437815  0.83238254  0.43630447    -0.77300
C603        C  0.47111590  0.85391443  0.42453770     1.03400
O604        O  0.00943498  0.83563875  0.38756477    -0.84600
O605        O  0.07009093  0.88091398  0.38494552    -0.81600
C606        C  0.09709718  0.89855763  0.39647530     0.98900
O607        O  0.10164185  0.91279866  0.42593747    -0.81700
O608        O  0.08740754  0.86822449  0.47540895    -0.84300
C609        C  0.07168836  0.84369259  0.49264465     1.03400
O610        O  0.04329761  0.83301526  0.49871623    -0.77100
O611        O  0.01702659  0.81301355  0.43298244    -0.77200
C612        C  0.01179473  0.81384062  0.40013329     1.03300
Cr613      Cr  0.03297029  0.87985404  0.40332854     1.93700
Cr614      Cr  0.07493955  0.89896156  0.47013566     1.93200
Cr615      Cr  0.01252761  0.83806895  0.46971359     1.39100
O616        O  0.04009086  0.87244473  0.44782907    -1.22300
O617        O  0.03899566  0.54934494  0.42139331    -0.84600
O618        O  0.49727732  0.55649750  0.42279230    -0.81600
C619        C  0.47393172  0.55372477  0.43885998     0.98900
O620        O  0.47628168  0.57580197  0.45745062    -0.81700
O621        O  0.03034937  0.60378091  0.51951635    -0.84300
C622        C  0.04298048  0.58946972  0.53163499     1.03400
O623        O  0.05854268  0.58289739  0.51120653    -0.77100
O624        O  0.08330151  0.57412868  0.45015382    -0.77300
C625        C  0.06166396  0.54967132  0.43593909     1.03400
O626        O  0.08536402  0.60622321  0.38960847    -0.84600
O627        O  0.04215262  0.62282848  0.38318307    -0.81600
C628        C  0.02406466  0.63164915  0.39247709     0.98900
O629        O  0.00900045  0.62217903  0.42166583    -0.81700
O630        O  0.05352744  0.65524381  0.47147797    -0.84300
C631        C  0.07775308  0.66494874  0.48967930     1.03400
O632        O  0.08818458  0.64771552  0.49733977    -0.77100
O633        O  0.10857721  0.63866753  0.43374330    -0.77200
C634        C  0.10791506  0.63106135  0.40149890     1.03300
Cr635      Cr  0.04077779  0.58663128  0.40414683     1.93700
Cr636      Cr  0.02203311  0.61145502  0.46824042     1.93200
Cr637      Cr  0.08211142  0.61017538  0.47121589     1.39100
O638        O  0.04822907  0.60260800  0.44800924    -1.22300
O639        O  0.35783398  0.91977486  0.43138898    -0.84600
O640        O  0.34603165  0.86137070  0.42443071    -0.81600
C641        C  0.35978633  0.85716644  0.45035689     0.98900
O642        O  0.34972734  0.85415243  0.48207839    -0.81700
O643        O  0.32087118  0.86315630  0.54074647    -0.84300
C644        C  0.33663311  0.89129025  0.54963066     1.03400
O645        O  0.34015607  0.91167513  0.52788584    -0.77100
O646        O  0.33718555  0.93912784  0.46632064    -0.77300
C647        C  0.35954374  0.94233891  0.44765667     1.03400
O648        O  0.29439715  0.90003575  0.41269044    -0.84600
O649        O  0.28157521  0.84035762  0.41050264    -0.81600
C650        C  0.27660673  0.81497842  0.42233568     0.98900
O651        O  0.29060044  0.81405826  0.45003135    -0.81700
O652        O  0.26297186  0.82841332  0.50347056    -0.84300
C653        C  0.25503512  0.84424293  0.52140671     1.03400
O654        O  0.27393925  0.87227221  0.52788769    -0.77100
O655        O  0.27164918  0.89610994  0.46422857    -0.77200
C656        C  0.27297271  0.89968256  0.43087743     1.03300
Cr657      Cr  0.31926916  0.88006269  0.42333889     1.93700
Cr658      Cr  0.30655276  0.84250638  0.49249643     1.93200
Cr659      Cr  0.30626588  0.90268415  0.49445148     1.39100
O660        O  0.31090177  0.87521022  0.47000180    -1.22300
C661        C  0.19829698  0.71905352  0.30570710     0.81000
N662        N  0.21990723  0.74715992  0.31914919    -0.77300
C663        C  0.22143862  0.75269060  0.35512755     0.83400
N664        N  0.20090814  0.73019897  0.37730082    -0.77300
C665        C  0.17920196  0.70240040  0.36404058     0.83500
N666        N  0.17815317  0.69685844  0.32830221    -0.79000
C667        C  0.37632437  0.55720675  0.95425233     0.81000
N668        N  0.39947071  0.57880391  0.97508968    -0.77300
C669        C  0.39782367  0.57645261  0.01140212     0.83400
N670        N  0.37291260  0.55209565  0.02683915    -0.77300
C671        C  0.34949724  0.53025310  0.00632347     0.83500
N672        N  0.35129237  0.53290809  0.96994950    -0.79000
C673        C  0.37689274  0.74964644  0.96568034     0.81000
N674        N  0.39804533  0.74651633  0.98534288    -0.77300
C675        C  0.39524977  0.74409773  0.02199912     0.83400
N676        N  0.37134738  0.74477033  0.03814911    -0.77300
C677        C  0.35056949  0.74810056  0.01837305     0.83500
N678        N  0.35369810  0.75058559  0.98249390    -0.79000
C679        C  0.29716616  0.63719508  0.18956005     0.81000
N680        N  0.28015019  0.60630883  0.19453673    -0.77300
C681        C  0.29387648  0.58941416  0.19204733     0.83400
N682        N  0.32409352  0.60307825  0.18340798    -0.77300
C683        C  0.34099905  0.63368572  0.17800767     0.83500
N684        N  0.32756893  0.65087270  0.18071789    -0.79000
O685        O  0.04353093  0.76112112  0.09627923    -0.84600
O686        O  0.03302582  0.70454104  0.08105189    -0.81600
C687        C  0.04243811  0.69506253  0.10701299     0.98900
O688        O  0.02693287  0.68562504  0.13564490    -0.81700
O689        O  0.48941096  0.68221195  0.17368531    -0.84300
C690        C  0.00945376  0.71030315  0.20876095     1.03400
O691        O  0.51045535  0.73231187  0.17249163    -0.77100
O692        O  0.02403106  0.77590102  0.13876016    -0.77300
C693        C  0.04574661  0.78136227  0.11746162     1.03400
O694        O  0.48850272  0.73961606  0.04624521    -0.84600
O695        O  0.47423696  0.68069955  0.03779472    -0.81600
C696        C  0.46468639  0.65334210  0.04623575     0.98900
O697        O  0.47340860  0.64726319  0.07517074    -0.81700
O698        O  0.43848837  0.65647281  0.12467159    -0.84300
C699        C  0.42909497  0.67087021  0.14317851     1.03400
O700        O  0.44708903  0.69820175  0.15300396    -0.77100
O701        O  0.45758594  0.73142417  0.09159307    -0.77200
C702        C  0.46439530  0.73790241  0.05887901     1.03300
Cr703      Cr  0.00579488  0.72340542  0.08149813     1.93700
Cr704      Cr  0.48294348  0.66964703  0.12211229     1.93200
Cr705      Cr  0.48522621  0.73119767  0.12997357     1.39100
O706        O  0.49294975  0.70613328  0.10445168    -1.22300
O707        O  0.22553073  0.89952848  0.09676203    -0.84600
O708        O  0.17733330  0.90937240  0.09222391    -0.81600
C709        C  0.16121680  0.89716219  0.12022195     0.98900
O710        O  0.17061909  0.90952877  0.15047596    -0.81700
O711        O  0.21036615  0.94137141  0.20469544    -0.84300
C712        C  0.22114236  0.92462359  0.21299264     1.03400
O713        O  0.23878162  0.92160507  0.19182601    -0.77100
O714        O  0.26781564  0.92229429  0.12927517    -0.77300
C715        C  0.24768620  0.89910940  0.11183824     1.03400
O716        O  0.26882772  0.96203841  0.07328143    -0.84600
O717        O  0.22164151  0.97346620  0.07390715    -0.81600
C718        C  0.20213998  0.97928810  0.08672223     0.98900
O719        O  0.18702773  0.96548947  0.11437489    -0.81700
O720        O  0.23202196  0.99640900  0.16472997    -0.84300
C721        C  0.24968325  0.50060361  0.16654441     1.03400
O722        O  0.26655608  0.98752400  0.18844263    -0.77100
O723        O  0.29063499  0.98702953  0.12325931    -0.77200
C724        C  0.29112485  0.98444799  0.08972859     1.03300
Cr725      Cr  0.22376364  0.93689113  0.08740449     1.93700
Cr726      Cr  0.20211555  0.95275848  0.15665637     1.93200
Cr727      Cr  0.26334334  0.95403628  0.15630193     1.39100
O728        O  0.22980428  0.94779954  0.13330937    -1.22300
O729        O  0.17769950  0.70567547  0.08015832    -0.84600
O730        O  0.22622541  0.76299786  0.09242608    -0.81600
C731        C  0.24777473  0.78503933  0.10939690     0.98900
O732        O  0.26686672  0.78108643  0.12707252    -0.81700
O733        O  0.23300281  0.74721681  0.18458127    -0.84300
C734        C  0.21575752  0.72530379  0.20481471     1.03400
O735        O  0.20446550  0.69773081  0.19408393    -0.77100
O736        O  0.16702557  0.69172309  0.13668485    -0.77300
C737        C  0.15959908  0.69811885  0.10703698     1.03400
O738        O  0.22207544  0.68744706  0.05962667    -0.84600
O739        O  0.27079471  0.74553159  0.06895023    -0.81600
C740        C  0.29162036  0.74404833  0.08669844     0.98900
O741        O  0.28902432  0.73919029  0.11978822    -0.81700
O742        O  0.26094367  0.70968262  0.18051933    -0.84300
C743        C  0.25198283  0.68237108  0.17105643     1.03400
O744        O  0.22891209  0.66769957  0.15078936    -0.77100
O745        O  0.18666564  0.65570445  0.09711292    -0.77200
C746        C  0.20176502  0.66056771  0.06816263     1.03300
Cr747      Cr  0.22453953  0.72482715  0.07876033     1.93700
Cr748      Cr  0.25982323  0.74229540  0.15079736     1.93200
Cr749      Cr  0.19885681  0.68085146  0.14318526     1.39100
O750        O  0.22774178  0.71596594  0.12397549    -1.22300
C751        C  0.18247175  0.55694306  0.97817456     0.81000
N752        N  0.18282171  0.53441608  0.99744308    -0.77300
C753        C  0.18281608  0.53487576  0.03386721     0.83400
N754        N  0.18185988  0.55782135  0.05118610    -0.77300
C755        C  0.18204474  0.58090852  0.03269003     0.83500
N756        N  0.18241144  0.58058097  0.99588920    -0.79000
C757        C  0.19625764  0.63511803  0.04346128    -0.15700
C758        C  0.18194574  0.60565807  0.05395276    -0.30800
H759        H  0.20703179  0.64119201  0.01715102     0.13400
H760        H  0.17321865  0.60006408  0.08123717     0.13900
C761        C  0.27072640  0.86752502  0.13093728    -0.12600
C762        C  0.24982311  0.87106829  0.10938872     0.09600
C763        C  0.22960759  0.84673260  0.08676532    -0.12600
C764        C  0.22972284  0.81932458  0.08624135    -0.12600
C765        C  0.24999945  0.81536070  0.10839337     0.09600
C766        C  0.27079160  0.83992256  0.13047967    -0.12600
H767        H  0.28649268  0.88578825  0.14883793     0.13600
H768        H  0.21324963  0.84864091  0.06978805     0.13600
H769        H  0.21340678  0.80095655  0.06881665     0.13600
H770        H  0.28658043  0.83756612  0.14798507     0.13600
C771        C  0.20717163  0.01358637  0.03717896    -0.15700
C772        C  0.19688262  0.00254247  0.07011992    -0.30800
H773        H  0.21812440  0.00401372  0.02104271     0.13400
H774        H  0.18407898  0.01064567  0.08528758     0.13900
C775        C  0.09288373  0.70832936  0.07607065    -0.12600
C776        C  0.07180301  0.69463958  0.10462078     0.09600
C777        C  0.07959216  0.68130642  0.13262146    -0.12600
C778        C  0.10762597  0.68207460  0.13262490    -0.12600
C779        C  0.12905760  0.69615788  0.10460527     0.09600
C780        C  0.12122163  0.70903364  0.07603135    -0.12600
H781        H  0.08775071  0.71897620  0.05416061     0.13600
H782        H  0.06410426  0.67046543  0.15507243     0.13600
H783        H  0.11260477  0.67175466  0.15504378     0.13600
H784        H  0.13724135  0.72021744  0.05411763     0.13600
C785        C  0.08224235  0.83163966  0.14668347    -0.12600
C786        C  0.07439775  0.81180221  0.11718473     0.09600
C787        C  0.09478882  0.82077642  0.08784026    -0.12600
C788        C  0.12269979  0.84895795  0.08819724    -0.12600
C789        C  0.13087096  0.86842588  0.11812162     0.09600
C790        C  0.11028844  0.85957295  0.14725345    -0.12600
H791        H  0.06707026  0.82523756  0.16970262     0.13600
H792        H  0.08925259  0.80590053  0.06467087     0.13600
H793        H  0.13819633  0.85513936  0.06552346     0.13600
H794        H  0.11596768  0.87416081  0.17072107     0.13600
C795        C  0.26842808  0.66788127  0.18286953    -0.12500
C796        C  0.28197948  0.65449104  0.18829485    -0.14100
C797        C  0.27582882  0.55677733  0.19097684    -0.12500
C798        C  0.26333130  0.53019176  0.18270649    -0.14100
C799        C  0.37197593  0.64676299  0.16554171    -0.12500
C800        C  0.39769844  0.65643717  0.15447358    -0.14100
C801        C  0.32392779  0.74830384  0.03452735    -0.15700
C802        C  0.31978218  0.74765935  0.06994684    -0.30800
H803        H  0.30680543  0.74809184  0.01661928     0.13400
H804        H  0.33690959  0.74771523  0.08772121     0.13900
C805        C  0.44406304  0.74327675  0.03443966    -0.15700
C806        C  0.41715148  0.74029645  0.04537923    -0.30800
H807        H  0.45100589  0.74892990  0.00658570     0.13400
H808        H  0.41064271  0.73492580  0.07339384     0.13900
C809        C  0.32165192  0.01147182  0.03491700    -0.15700
C810        C  0.31884263  0.00824429  0.07080095    -0.30800
H811        H  0.30291290  0.99543935  0.01750182     0.13400
H812        H  0.33764310  0.02471034  0.08786160     0.13900
C813        C  0.42242158  0.60031697  0.03437157    -0.15700
C814        C  0.44301305  0.62848165  0.02198668    -0.30800
H815        H  0.42220039  0.59532862  0.06275971     0.13400
H816        H  0.44192680  0.63428585  0.99418716     0.13900
C817        C  0.19729386  0.71133906  0.26725967    -0.15700
C818        C  0.21209225  0.73280828  0.24209464    -0.30800
H819        H  0.18474367  0.68719419  0.25970000     0.13400
H820        H  0.22410713  0.75694880  0.24966445     0.13900
C821        C  0.24509934  0.78292346  0.37027619    -0.15700
C822        C  0.25403484  0.78560809  0.40486249    -0.30800
H823        H  0.25568160  0.80289632  0.35285834     0.13400
H824        H  0.24488023  0.76506254  0.42126029     0.13900
C825        C  0.43672109  0.00806000  0.41618285    -0.12600
C826        C  0.44346288  0.52410257  0.43633349     0.09600
C827        C  0.41717470  0.52033318  0.45424830    -0.12600
C828        C  0.39633043  0.99373048  0.47403903    -0.12600
C829        C  0.38817020  0.97269293  0.44561768     0.09600
C830        C  0.40853661  0.98013849  0.41660519    -0.12600
H831        H  0.45222632  0.01312517  0.39372655     0.13600
H832        H  0.41839830  0.53919399  0.46928377     0.13600
H833        H  0.38115429  0.98838374  0.49689602     0.13600
H834        H  0.40277625  0.96425471  0.39442147     0.13600
C835        C  0.15621109  0.67923678  0.38853954    -0.15700
C836        C  0.13318790  0.65161669  0.37723126    -0.30800
H837        H  0.15738723  0.68587184  0.41651043     0.13400
H838        H  0.13172219  0.64487272  0.34927537     0.13900
C839        C  0.43423146  0.87115613  0.40813236    -0.12600
C840        C  0.44144402  0.85288052  0.42943938     0.09600
C841        C  0.42112884  0.83539492  0.45722930    -0.12600
C842        C  0.39465336  0.83687079  0.46421674    -0.12600
C843        C  0.38757130  0.85525960  0.44298771     0.09600
C844        C  0.40737535  0.87201415  0.41454342    -0.12600
H845        H  0.44948827  0.88497725  0.38663019     0.13600
H846        H  0.42621972  0.82132314  0.47429743     0.13600
H847        H  0.37965068  0.82356211  0.48614615     0.13600
H848        H  0.40249814  0.88643662  0.39782670     0.13600
C849        C  0.07627681  0.99296621  0.46434556    -0.12600
C850        C  0.06299597  0.97179369  0.43592745     0.09600
C851        C  0.05050621  0.97919904  0.40658792    -0.12600
C852        C  0.05069584  0.00684304  0.40604578    -0.12600
C853        C  0.06293881  0.52128161  0.43526807     0.09600
C854        C  0.08060071  0.51628375  0.46045309    -0.12600
H855        H  0.08599783  0.98790684  0.48736920     0.13600
H856        H  0.03990482  0.96328435  0.38439648     0.13600
H857        H  0.04033261  0.01162817  0.38344280     0.13600
H858        H  0.09414985  0.53353306  0.48054200     0.13600
C859        C  0.10422366  0.72222573  0.51174411    -0.12500
C860        C  0.09291070  0.69584544  0.50265633    -0.14100
C861        C  0.19611610  0.81853678  0.53618474    -0.12500
C862        C  0.22366457  0.83073759  0.53281025    -0.14100
C863        C  0.09983524  0.81488253  0.51434573    -0.12500
C864        C  0.08644677  0.82784732  0.50570656    -0.14100
C865        C  0.02119072  0.65351076  0.36887845    -0.15700
C866        C  0.51409933  0.66875048  0.35935018    -0.30800
H867        H  0.03221165  0.65858968  0.34271218     0.13400
H868        H  0.51734052  0.65358028  0.34175828     0.13900
C869        C  0.50976998  0.76291597  0.37523685    -0.15700
C870        C  0.00914653  0.78956991  0.37607766    -0.30800
H871        H  0.51299574  0.76065068  0.40366857     0.13400
H872        H  0.00706825  0.79184057  0.34738101     0.13900
C873        C  0.51094364  0.70756098  0.22810073    -0.15700
C874        C  0.51189501  0.72756464  0.25251287    -0.30800
H875        H  0.01355162  0.68751251  0.25687749     0.13400
H876        H  0.51014930  0.74689342  0.24330288     0.13900
C877        C  0.24888955  0.90364420  0.41398927    -0.15400
C878        C  0.24609414  0.90498363  0.37843136    -0.30800
H879        H  0.23211369  0.90428672  0.43165554     0.13400
H880        H  0.26266864  0.90407146  0.36067403     0.13900
C881        C  0.15015400  0.90817139  0.38892273    -0.15700
C882        C  0.12319010  0.90243367  0.37455000    -0.30800
H883        H  0.15367112  0.91110247  0.41777430     0.13400
H884        H  0.11888653  0.89739108  0.34605589     0.13900
C885        C  0.19502240  0.91250694  0.27095883    -0.15700
C886        C  0.21552735  0.91132411  0.24909861    -0.30800
H887        H  0.17950106  0.91954549  0.26053656     0.13400
H888        H  0.23045376  0.90336174  0.25894126     0.13900
C889        C  0.34352976  0.87905242  0.61121330    -0.15700
C890        C  0.34758067  0.90021178  0.58693105    -0.30800
H891        H  0.33576204  0.85574730  0.60241748     0.13400
H892        H  0.35624985  0.92379835  0.59528193     0.13900
C893        C  0.18434632  0.57476215  0.91441083    -0.15700
C894        C  0.17879406  0.55274417  0.93852841    -0.30800
H895        H  0.19393508  0.59834249  0.92334841     0.13400
H896        H  0.17025734  0.52952786  0.92879753     0.13900
C897        C  0.27546249  0.69505609  0.79288637    -0.12600
C898        C  0.29701951  0.69923318  0.76619358     0.09600
C899        C  0.28734789  0.67707714  0.73869229    -0.12600
C900        C  0.25724731  0.65079207  0.73891924    -0.12600
C901        C  0.23593169  0.64647810  0.76616029     0.09600
C902        C  0.24543063  0.66933526  0.79270515    -0.12600
H903        H  0.28191772  0.71172620  0.81433098     0.13600
H904        H  0.30332946  0.67954732  0.71775436     0.13600
H905        H  0.25079304  0.63364924  0.71805662     0.13600
H906        H  0.22991150  0.66689848  0.81421239     0.13600
C907        C  0.39276651  0.74644297  0.90246791    -0.15700
C908        C  0.37875693  0.75476846  0.92663897    -0.30800
H909        H  0.40479181  0.73489623  0.91089184     0.13400
H910        H  0.36636186  0.76567578  0.91714073     0.13900
C911        C  0.35175568  0.84407397  0.72998762    -0.15700
C912        C  0.36199005  0.82679626  0.71546531    -0.30800
H913        H  0.34806048  0.84367263  0.75875410     0.13400
H914        H  0.36786191  0.82910363  0.68713096     0.13900
C915        C  0.41793705  0.65875305  0.78853839    -0.12600
C916        C  0.40380638  0.63902991  0.75896587     0.09600
C917        C  0.39706022  0.65042795  0.72821193    -0.12600
C918        C  0.40294093  0.68046364  0.72771071    -0.12600
C919        C  0.41619286  0.69982754  0.75768729     0.09600
C920        C  0.42429646  0.68896881  0.78778241    -0.12600
H921        H  0.42365099  0.65069464  0.81253191     0.13600
H922        H  0.38636592  0.63585955  0.70496290     0.13600
H923        H  0.39630743  0.68830999  0.70425154     0.13600
H924        H  0.43400812  0.70328462  0.81143106     0.13600
C925        C  0.26920881  0.53864911  0.73578061    -0.12600
C926        C  0.27640077  0.52213541  0.76007820     0.09600
C927        C  0.25655187  0.50724170  0.78915272    -0.12600
C928        C  0.23055779  0.50976538  0.79455400    -0.12600
C929        C  0.22358943  0.52658423  0.77047096     0.09600
C930        C  0.24281955  0.54053878  0.74069122    -0.12600
H931        H  0.28604156  0.03271735  0.72199172     0.13600
H932        H  0.26174878  0.49459417  0.80843142     0.13600
H933        H  0.21594408  0.49864134  0.81759283     0.13600
H934        H  0.23814099  0.03343158  0.72482181     0.13600
C935        C  0.35684965  0.54263101  0.89182286    -0.15700
C936        C  0.38004535  0.55957678  0.91490376    -0.30800
H937        H  0.33348680  0.52775994  0.90176326     0.13400
H938        H  0.40317048  0.57509945  0.90467779     0.13900
C939        C  0.34606338  0.93677826  0.71997921    -0.15700
C940        C  0.35545527  0.96416165  0.70472920    -0.30800
H941        H  0.33987993  0.93353187  0.74824987     0.13400
H942        H  0.36398488  0.96864409  0.67732853     0.13900
C943        C  0.45023088  0.88944062  0.85936689    -0.12500
C944        C  0.43898117  0.86306593  0.85053949    -0.14100
C945        C  0.06226200  0.00110346  0.85041385    -0.12500
C946        C  0.03534629  0.98833221  0.85820291    -0.14100
C947        C  0.42068191  0.49448138  0.82881192    -0.12500
C948        C  0.44342624  0.97932967  0.84133080    -0.14100
C949        C  0.49088587  0.84848626  0.68700783    -0.15700
C950        C  0.48835651  0.84303100  0.72244055    -0.30800
H951        H  0.96617845  0.82859279  0.68037736     0.13400
H952        H  0.50671024  0.85955610  0.73994073     0.13900
C953        C  0.09364039  0.95225561  0.73367291    -0.15700
C954        C  0.07791299  0.95133871  0.70417251    -0.30800
H955        H  0.08844340  0.93095788  0.74658846     0.13400
H956        H  0.08438245  0.97269424  0.69047729     0.13900
C957        C  0.04322617  0.89830998  0.59058934    -0.15700
C958        C  0.02100623  0.87978498  0.56742727    -0.30800
H959        H  0.06651108  0.91403876  0.58093785     0.13400
H960        H  0.99742168  0.86491388  0.57672109     0.13900
C961        C  0.09334565  0.58511690  0.73370464    -0.15700
C962        C  0.08739532  0.58314614  0.69815161    -0.30800
H963        H  0.07908878  0.58931089  0.75188393     0.13400
H964        H  0.10153036  0.57916856  0.67955496     0.13900
C965        C  0.48271870  0.57731519  0.71298316    -0.15700
C966        C  0.45543877  0.56733636  0.69676588    -0.30800
H967        H  0.99566836  0.58238972  0.74719947     0.13400
H968        H  0.45186625  0.55925415  0.66915950     0.13900
C969        C  0.02916960  0.59117825  0.59535653    -0.15700
C970        C  0.04262012  0.58278634  0.57042084    -0.30800
H971        H  0.01517638  0.60066372  0.58697790     0.13400
H972        H  0.05588367  0.57253672  0.57897539     0.13900
C973        C  0.53353956  0.08097563  0.63738899     0.81000
N974        N  0.55696129  0.07756294  0.64978659    -0.77300
C975        C  0.56094744  0.07592079  0.68562483     0.83400
N976        N  0.54090463  0.07699393  0.70909637    -0.77300
C977        C  0.51717681  0.07998461  0.69705372     0.83500
N978        N  0.51375774  0.08222688  0.66114212    -0.79000
C979        C  0.53875439  0.39531852  0.63063371     0.81000
N980        N  0.51580814  0.37044105  0.64804221    -0.77300
C981        C  0.51308816  0.37069647  0.68445262     0.83400
N982        N  0.53371629  0.39643874  0.70343827    -0.77300
C983        C  0.55654467  0.42156112  0.68580650     0.83500
N984        N  0.55875194  0.42061414  0.64967390    -0.79000
C985        C  0.95886685  0.47539110  0.85921496     0.81000
N986        N  0.98984547  0.49269184  0.86390462    -0.77300
C987        C  0.49957461  0.47285328  0.86163478     0.83400
N988        N  0.99136425  0.44798054  0.87456050    -0.77300
C989        C  0.96025122  0.43080392  0.87010340     0.83500
N990        N  0.94413147  0.44449850  0.86190317    -0.79000
O991        O  0.84497390  0.05969906  0.74232486    -0.84600
O992        O  0.90604630  0.10668007  0.74221444    -0.81600
C993        C  0.90878738  0.12017516  0.77190861     0.98900
O994        O  0.90923418  0.10781547  0.80097073    -0.81700
O995        O  0.89760967  0.06235189  0.84929220    -0.84300
C996        C  0.86928472  0.04811173  0.85770649     1.03400
O997        O  0.84876940  0.03306372  0.83440478    -0.77100
O998        O  0.82331122  0.01384398  0.76672836    -0.77300
C999        C  0.82119302  0.03568146  0.75366507     1.03400
O1000       O  0.86148447  0.01858774  0.71023309    -0.84600
O1001       O  0.92279721  0.06251335  0.71776347    -0.81600
C1002       C  0.94830581  0.07933215  0.73347149     0.98900
O1003       O  0.94933607  0.09371520  0.76159545    -0.81700
O1004       O  0.93270002  0.04531976  0.80628719    -0.84300
C1005       C  0.91595546  0.01969283  0.82097933     1.03400
O1006       O  0.88700630  0.00764713  0.82320884    -0.77100
O1007       O  0.84381722  0.48867238  0.75125608    -0.77200
C1008       C  0.85877091  0.49511520  0.72220344     1.03300
Cr1009     Cr  0.88417439  0.06128248  0.73139567     1.93700
Cr1010     Cr  0.91968723  0.07556078  0.80249799     1.93200
Cr1011     Cr  0.85826165  0.01461302  0.79315782     1.39100
O1012       O  0.88705750  0.05057268  0.77592878    -1.22300
O1013       O  0.88997470  0.23505832  0.76009397    -0.84600
O1014       O  0.84175890  0.24357355  0.74872417    -0.81600
C1015       C  0.82352534  0.23263244  0.77545750     0.98900
O1016       O  0.83090073  0.24670985  0.80512024    -0.81700
O1017       O  0.86702669  0.27898181  0.86267476    -0.84300
C1018       C  0.87795509  0.26360530  0.87564195     1.03400
O1019       O  0.89650871  0.25920216  0.85750905    -0.77100
O1020       O  0.92869154  0.25671121  0.79815262    -0.77300
C1021       C  0.91063865  0.23440153  0.77810775     1.03400
O1022       O  0.93475188  0.29767710  0.73734520    -0.84600
O1023       O  0.88744229  0.30732440  0.72963979    -0.81600
C1024       C  0.86742891  0.31366927  0.73822210     0.98900
O1025       O  0.85181599  0.30285374  0.76654313    -0.81700
O1026       O  0.89384512  0.33376110  0.82080883    -0.84300
C1027       C  0.91642814  0.34194791  0.84172118     1.03400
O1028       O  0.92594086  0.32410683  0.84962960    -0.77100
O1029       O  0.95390941  0.32210895  0.78827800    -0.77200
C1030       C  0.95596811  0.32037366  0.75477154     1.03300
Cr1031     Cr  0.88873500  0.27183430  0.74782609     1.93700
Cr1032     Cr  0.86319984  0.29000733  0.81212391     1.93200
Cr1033     Cr  0.92362718  0.28977408  0.82083687     1.39100
O1034       O  0.89181958  0.28362204  0.79356879    -1.22300
O1035       O  0.69267760  0.09937354  0.74654616    -0.84600
O1036       O  0.70205019  0.05146782  0.74650120    -0.81600
C1037       C  0.70395376  0.02988771  0.76006234     0.98900
O1038       O  0.68179030  0.00927576  0.77835874    -0.81700
O1039       O  0.68480344  0.03644758  0.84302976    -0.84300
C1040       C  0.68197674  0.05239854  0.86675864     1.03400
O1041       O  0.66574880  0.06432438  0.86062721    -0.77100
O1042       O  0.69574520  0.10481067  0.80521391    -0.77300
C1043       C  0.70673600  0.11496738  0.77450865     1.03400
O1044       O  0.62671167  0.05496011  0.73165075    -0.84600
O1045       O  0.63766476  0.00749112  0.72677089    -0.81600
C1046       C  0.61581816  0.48222215  0.75221472     0.98900
O1047       O  0.62914951  0.48165120  0.78072855    -0.81700
O1048       O  0.60015338  0.49896675  0.82855147    -0.84300
C1049       C  0.60018806  0.01908981  0.84007740     1.03400
O1050       O  0.60862479  0.04375385  0.82365289    -0.77100
O1051       O  0.63738748  0.08909404  0.77368604    -0.77200
C1052       C  0.62210079  0.07462185  0.74615315     1.03300
Cr1053     Cr  0.66405716  0.05274651  0.74128205     1.93700
Cr1054     Cr  0.65065686  0.01257816  0.80883991     1.93200
Cr1055     Cr  0.65228174  0.07351891  0.81376666     1.39100
O1056       O  0.65566868  0.04617548  0.78780185    -1.22300
C1057       C  0.84812216  0.39045271  0.64351974     0.81000
N1058       N  0.84683100  0.41443155  0.65814371    -0.77300
C1059       C  0.84591095  0.41683866  0.69454472     0.83400
N1060       N  0.84630260  0.39545933  0.71589572    -0.77300
C1061       C  0.84831644  0.37210778  0.70154076     0.83500
N1062       N  0.84893001  0.36954458  0.66536069    -0.79000
C1063       C  0.69541829  0.41397318  0.30299297     0.81000
N1064       N  0.67399658  0.41463562  0.32448516    -0.77300
C1065       C  0.67500340  0.41173404  0.36074058     0.83400
N1066       N  0.69794684  0.40856655  0.37530507    -0.77300
C1067       C  0.71955563  0.40795903  0.35396010     0.83500
N1068       N  0.71807373  0.41062560  0.31793290    -0.79000
C1069       C  0.02163184  0.22850572  0.29428349     0.81000
N1070       N  0.02524543  0.20574760  0.30798541    -0.77300
C1071       C  0.02414239  0.20096963  0.34384483     0.83400
N1072       N  0.01989608  0.21953111  0.36639145    -0.77300
C1073       C  0.01657037  0.24263296  0.35333589     0.83500
N1074       N  0.01728558  0.24699331  0.31710214    -0.79000
C1075       C  0.61844325  0.30065789  0.52264835     0.81000
N1076       N  0.60390698  0.26957227  0.52081818    -0.77300
C1077       C  0.61999827  0.25538796  0.52715772     0.83400
N1078       N  0.65062407  0.27222533  0.53440911    -0.77300
C1079       C  0.66512823  0.30321842  0.53629273     0.83500
N1080       N  0.64918421  0.31752637  0.52985034    -0.79000
O1081       O  0.99364115  0.37426709  0.41694848    -0.84600
O1082       O  0.55372531  0.42647812  0.41092183    -0.81600
C1083       C  0.56000559  0.44167923  0.44001150     0.98900
O1084       O  0.56510349  0.43136400  0.46829592    -0.81700
O1085       O  0.55686361  0.38855556  0.51929983    -0.84300
C1086       C  0.52898918  0.37474808  0.52999531     1.03400
O1087       O  0.50721081  0.35795889  0.50879730    -0.77100
O1088       O  0.97315889  0.33003189  0.44479173    -0.77300
C1089       C  0.97071727  0.35170910  0.43161501     1.03400
O1090       O  0.51162584  0.33643950  0.38569106    -0.84600
O1091       O  0.57114848  0.38391576  0.38342820    -0.81600
C1092       C  0.59811228  0.40159858  0.39495184     0.98900
O1093       O  0.60248999  0.41441584  0.42542180    -0.81700
O1094       O  0.58906398  0.36875485  0.47320244    -0.84300
C1095       C  0.57379480  0.34391464  0.49000723     1.03400
O1096       O  0.54534009  0.33249858  0.49618690    -0.77100
O1097       O  0.51910597  0.31296028  0.43030804    -0.77200
C1098       C  0.51446908  0.31458946  0.39742758     1.03300
Cr1099     Cr  0.53331944  0.38051175  0.40315123     1.93700
Cr1100     Cr  0.57560319  0.39884376  0.46970941     1.93200
Cr1101     Cr  0.51391836  0.33701926  0.46821311     1.39100
O1102       O  0.54089598  0.37226401  0.44709048    -1.22300
O1103       O  0.53539149  0.05389586  0.41807341    -0.84600
O1104       O  0.99361182  0.06671618  0.40786404    -0.81600
C1105       C  0.97512784  0.05392476  0.43404757     0.98900
O1106       O  0.98240098  0.06530361  0.46511109    -0.81700
O1107       O  0.53278667  0.10355801  0.52652927    -0.84300
C1108       C  0.54640393  0.08945511  0.53510542     1.03400
O1109       O  0.56193629  0.08489473  0.51217474    -0.77100
O1110       O  0.58047209  0.07684648  0.44580548    -0.77300
C1111       C  0.55823360  0.05320379  0.43090376     1.03400
O1112       O  0.57886191  0.11206112  0.38769005    -0.84600
O1113       O  0.53640718  0.13066194  0.39418934    -0.81600
C1114       C  0.51910128  0.13857250  0.40910070     0.98900
O1115       O  0.50451370  0.12499111  0.43724021    -0.81700
O1116       O  0.55226684  0.15654189  0.48361326    -0.84300
C1117       C  0.57836357  0.16634136  0.49759780     1.03400
O1118       O  0.59036127  0.14982284  0.49973565    -0.77100
O1119       O  0.60643863  0.14200735  0.43198430    -0.77200
C1120       C  0.60340898  0.13519493  0.39908075     1.03300
Cr1121     Cr  0.53591599  0.09244298  0.40769990     1.93700
Cr1122     Cr  0.52126454  0.11281248  0.47868890     1.93200
Cr1123     Cr  0.58200843  0.11278583  0.47081635     1.39100
O1124       O  0.54645741  0.10578544  0.45262403    -1.22300
O1125       O  0.85728896  0.41857364  0.42301371    -0.84600
O1126       O  0.84553581  0.36008696  0.41950240    -0.81600
C1127       C  0.85903283  0.35657577  0.44633203     0.98900
O1128       O  0.84889717  0.35495998  0.47771484    -0.81700
O1129       O  0.82082592  0.36619630  0.53485735    -0.84300
C1130       C  0.83676399  0.39458992  0.54247659     1.03400
O1131       O  0.84026254  0.41427674  0.51960397    -0.77100
O1132       O  0.83704127  0.43950020  0.45584448    -0.77300
C1133       C  0.85935828  0.44181554  0.43783819     1.03400
O1134       O  0.79345062  0.39844538  0.40372881    -0.84600
O1135       O  0.78093472  0.33901810  0.40510470    -0.81600
C1136       C  0.77581485  0.31404106  0.41832816     0.98900
O1137       O  0.78956364  0.31384802  0.44661484    -0.81700
O1138       O  0.76272951  0.33034912  0.49882848    -0.84300
C1139       C  0.75550014  0.34681065  0.51655479     1.03400
O1140       O  0.77418364  0.37526331  0.52053890    -0.77100
O1141       O  0.77134362  0.39644843  0.45516856    -0.77200
C1142       C  0.77220491  0.39879709  0.42164168     1.03300
Cr1143     Cr  0.81863095  0.37886615  0.41641354     1.93700
Cr1144     Cr  0.80600192  0.34384336  0.48762710     1.93200
Cr1145     Cr  0.80621230  0.40420057  0.48574683     1.39100
O1146       O  0.81042582  0.37572211  0.46315862    -1.22300
C1147       C  0.70219302  0.21713280  0.30181036     0.81000
N1148       N  0.72348639  0.24505547  0.31575150    -0.77300
C1149       C  0.72277176  0.25130504  0.35107151     0.83400
N1150       N  0.70035856  0.22970440  0.37234989    -0.77300
C1151       C  0.67859692  0.20204250  0.35890121     0.83500
N1152       N  0.67964017  0.19560607  0.32352850    -0.79000
C1153       C  0.87889840  0.05851196  0.95945752     0.81000
N1154       N  0.90266497  0.07818566  0.98100432    -0.77300
C1155       C  0.90071109  0.07456118  0.01711343     0.83400
N1156       N  0.87476187  0.05090789  0.03164177    -0.77300
C1157       C  0.85069034  0.03098903  0.01039776     0.83500
N1158       N  0.85281558  0.03479346  0.97416778    -0.79000
C1159       C  0.88442629  0.24383032  0.97396600     0.81000
N1160       N  0.90629104  0.24173161  0.99304499    -0.77300
C1161       C  0.90286741  0.23649793  0.02891624     0.83400
N1162       N  0.87769233  0.23315508  0.04552654    -0.77300
C1163       C  0.85603969  0.23574407  0.02747590     0.83500
N1164       N  0.85920952  0.24118350  0.99136122    -0.79000
C1165       C  0.80669782  0.13686842  0.19662285     0.81000
N1166       N  0.78805157  0.10603501  0.20065199    -0.77300
C1167       C  0.80040141  0.08783479  0.20072844     0.83400
N1168       N  0.83112456  0.10030391  0.19541680    -0.77300
C1169       C  0.84967535  0.13102435  0.19121529     0.83500
N1170       N  0.83743220  0.14927677  0.19132968    -0.79000
O1171       O  0.55731619  0.25135944  0.09366744    -0.84600
O1172       O  0.53967499  0.19134924  0.07993756    -0.81600
C1173       C  0.54768057  0.18375716  0.10836600     0.98900
O1174       O  0.53209400  0.17831740  0.13655606    -0.81700
O1175       O  0.99849986  0.18232279  0.18015091    -0.84300
C1176       C  0.51563315  0.21328907  0.20061645     1.03400
O1177       O  0.01903838  0.23234998  0.17529743    -0.77100
O1178       O  0.53227018  0.27065417  0.12000093    -0.77300
C1179       C  0.55682002  0.27396856  0.10669695     1.03400
O1180       O  0.99743852  0.23716552  0.05229792    -0.84600
O1181       O  0.97918949  0.17683998  0.04464700    -0.81600
C1182       C  0.96875144  0.14939042  0.05363618     0.98900
O1183       O  0.97677553  0.14291999  0.08299138    -0.81700
O1184       O  0.94507156  0.15408606  0.13424314    -0.84300
C1185       C  0.93678742  0.16902086  0.15327334     1.03400
O1186       O  0.95503035  0.19699607  0.16035251    -0.77100
O1187       O  0.96426296  0.22599504  0.09582747    -0.77200
C1188       C  0.97247367  0.23394704  0.06380047     1.03300
Cr1189     Cr  0.51914641  0.21581448  0.07478192     1.93700
Cr1190     Cr  0.98897394  0.16654489  0.12952049     1.93200
Cr1191     Cr  0.99235212  0.22851677  0.13406749     1.39100
O1192       O  0.99932619  0.20243630  0.11029442    -1.22300
O1193       O  0.72864583  0.39581948  0.08923941    -0.84600
O1194       O  0.68217385  0.40616688  0.07755723    -0.81600
C1195       C  0.66483549  0.39427857  0.10466733     0.98900
O1196       O  0.67175573  0.40762060  0.13462256    -0.81700
O1197       O  0.70763214  0.44060303  0.19174153    -0.84300
C1198       C  0.71816812  0.42445944  0.20353276     1.03400
O1199       O  0.73572349  0.41967714  0.18428041    -0.77100
O1200       O  0.76813165  0.41736334  0.12607606    -0.77300
C1201       C  0.74893612  0.39448707  0.10735219     1.03400
O1202       O  0.77429158  0.45783243  0.06596603    -0.84600
O1203       O  0.72751085  0.46931393  0.05851100    -0.81600
C1204       C  0.70679614  0.47482488  0.06712987     0.98900
O1205       O  0.69073581  0.46280818  0.09498547    -0.81700
O1206       O  0.73246375  0.49444483  0.14868408    -0.84300
C1207       C  0.75099271  0.99898854  0.17311415     1.03400
O1208       O  0.76520846  0.48561246  0.17754640    -0.77100
O1209       O  0.79350491  0.48266652  0.11673100    -0.77200
C1210       C  0.79577309  0.48007978  0.08347740     1.03300
Cr1211     Cr  0.72851423  0.43326381  0.07635073     1.93700
Cr1212     Cr  0.70283578  0.45083183  0.14084770     1.93200
Cr1213     Cr  0.76321404  0.45078661  0.14891694     1.39100
O1214       O  0.73170514  0.44504832  0.12187613    -1.22300
O1215       O  0.67910396  0.19423237  0.08321662    -0.84600
O1216       O  0.72315178  0.25524808  0.09426119    -0.81600
C1217       C  0.74675205  0.27891227  0.10658447     0.98900
O1218       O  0.76925355  0.27705190  0.11862819    -0.81700
O1219       O  0.74652973  0.24560775  0.18254516    -0.84300
C1220       C  0.72883906  0.22373451  0.20309059     1.03400
O1221       O  0.71674107  0.19599856  0.19285339    -0.77100
O1222       O  0.67399532  0.18432657  0.14066968    -0.77300
C1223       C  0.66334812  0.18754531  0.11158760     1.03400
O1224       O  0.72581003  0.18403782  0.05706942    -0.84600
O1225       O  0.76851792  0.24560388  0.06018972    -0.81600
C1226       C  0.79075579  0.24262355  0.06983902     0.98900
O1227       O  0.79319129  0.23699474  0.10231648    -0.81700
O1228       O  0.77629199  0.21170156  0.17000947    -0.84300
C1229       C  0.76566954  0.18334356  0.16555863     1.03400
O1230       O  0.74107347  0.16684210  0.14841514    -0.77100
O1231       O  0.69609881  0.15100023  0.09833275    -0.77200
C1232       C  0.70917944  0.15679878  0.06785244     1.03300
Cr1233     Cr  0.72480647  0.21926963  0.07723347     1.93700
Cr1234     Cr  0.76878294  0.24079167  0.14161621     1.93200
Cr1235     Cr  0.70883266  0.17728146  0.14324926     1.39100
O1236       O  0.73399547  0.21237515  0.12093931    -1.22300
C1237       C  0.69792771  0.06703683  0.96758673     0.81000
N1238       N  0.70211869  0.04396796  0.97885406    -0.77300
C1239       C  0.70441891  0.03973135  0.01450177     0.83400
N1240       N  0.70299031  0.05903041  0.03887597    -0.77300
C1241       C  0.69951443  0.08253010  0.02771813     0.83500
N1242       N  0.69666735  0.08610944  0.99208478    -0.79000
C1243       C  0.70466457  0.13205622  0.04320008    -0.15700
C1244       C  0.69979994  0.10465122  0.05401287    -0.30800
H1245       H  0.70841089  0.13792003  0.01488235     0.13400
H1246       H  0.69820471  0.09938798  0.08246222     0.13900
C1247       C  0.77411457  0.36360668  0.12141857    -0.12600
C1248       C  0.74957206  0.36551365  0.10644190     0.09600
C1249       C  0.72462638  0.33889180  0.09099923    -0.12600
C1250       C  0.72394490  0.31105928  0.09092537    -0.12600
C1251       C  0.74826590  0.30895812  0.10611466     0.09600
C1252       C  0.77352984  0.33564239  0.12111572    -0.12600
H1253       H  0.79368272  0.38366370  0.13344783     0.13600
H1254       H  0.70521365  0.33937728  0.07935458     0.13600
H1255       H  0.70414223  0.29107159  0.07910610     0.13600
H1256       H  0.79269394  0.33484399  0.13297645     0.13600
C1257       C  0.68763501  0.51006344  0.05654616    -0.15700
C1258       C  0.70125097  0.49512660  0.04400096    -0.30800
H1259       H  0.68042832  0.50723863  0.08444615     0.13400
H1260       H  0.71064765  0.49969952  0.01698193     0.13900
C1261       C  0.59350687  0.18830828  0.07733216    -0.12600
C1262       C  0.57574017  0.18176484  0.10859987     0.09600
C1263       C  0.58612773  0.17533213  0.14055057    -0.12600
C1264       C  0.61428058  0.17636897  0.14141933    -0.12600
C1265       C  0.63244817  0.18380642  0.11033789     0.09600
C1266       C  0.62155842  0.18928750  0.07818306    -0.12600
H1267       H  0.58612270  0.19341165  0.05234255     0.13600
H1268       H  0.57291475  0.17028155  0.16510129     0.13600
H1269       H  0.62211884  0.17203254  0.16656925     0.13600
H1270       H  0.63506573  0.19509988  0.05378637     0.13600
C1271       C  0.58571868  0.32846666  0.12613028    -0.12600
C1272       C  0.58435169  0.30488241  0.10505697     0.09600
C1273       C  0.60890786  0.31142423  0.08183887    -0.12600
C1274       C  0.63467560  0.34114831  0.08012747    -0.12600
C1275       C  0.63626790  0.36438487  0.10204272     0.09600
C1276       C  0.61155637  0.35790523  0.12481915    -0.12600
H1277       H  0.56704001  0.32406204  0.14413869     0.13600
H1278       H  0.60819143  0.29361973  0.06508942     0.13600
H1279       H  0.65379709  0.34569924  0.06280104     0.13600
H1280       H  0.61244581  0.37556129  0.14203469     0.13600
C1281       C  0.78141461  0.16932995  0.18070768    -0.12500
C1282       C  0.79330109  0.15531656  0.19061306    -0.14100
C1283       C  0.78066438  0.05528403  0.19814724    -0.12500
C1284       C  0.76608901  0.02873230  0.18933551    -0.14100
C1285       C  0.88092481  0.14336313  0.18024494    -0.12500
C1286       C  0.90645303  0.15420316  0.16807294    -0.14100
C1287       C  0.82982051  0.23176610  0.04902158    -0.15700
C1288       C  0.81362742  0.24542532  0.04291469    -0.30800
H1289       H  0.82578362  0.21905894  0.07389514     0.13400
H1290       H  0.81686766  0.25816280  0.01830264     0.13900
C1291       C  0.95264628  0.23912951  0.03949119    -0.15700
C1292       C  0.92520587  0.23367998  0.05103435    -0.30800
H1293       H  0.95998850  0.24629552  0.01202542     0.13400
H1294       H  0.91835771  0.22664208  0.07867375     0.13900
C1295       C  0.82748066  0.50870124  0.03021391    -0.15700
C1296       C  0.82426067  0.50408320  0.06589851    -0.30800
H1297       H  0.80909465  0.49303944  0.01217054     0.13400
H1298       H  0.84256800  0.52025138  0.08369784     0.13900
C1299       C  0.92573986  0.09690911  0.04079894    -0.15700
C1300       C  0.94700869  0.12501723  0.02911338    -0.30800
H1301       H  0.92504067  0.09121338  0.06901496     0.13400
H1302       H  0.94634866  0.13142308  0.00146017     0.13900
C1303       C  0.70432710  0.20960602  0.26371103    -0.15700
C1304       C  0.72384899  0.23103886  0.24016058    -0.30800
H1305       H  0.69007125  0.18582193  0.25512302     0.13400
H1306       H  0.73746367  0.25492474  0.24859780     0.13900
C1307       C  0.74604713  0.28143395  0.36634881    -0.15700
C1308       C  0.75347048  0.28443806  0.40142346    -0.30800
H1309       H  0.75773727  0.30110794  0.34857397     0.13400
H1310       H  0.74338430  0.26417923  0.41841365     0.13900
C1311       C  0.93998773  0.50328744  0.40982199    -0.12600
C1312       C  0.94422041  0.02577714  0.42912756     0.09600
C1313       C  0.91968478  0.02129836  0.45120991    -0.12600
C1314       C  0.89503796  0.49542696  0.45958116    -0.12600
C1315       C  0.88848987  0.47177911  0.43503501     0.09600
C1316       C  0.91114438  0.47609422  0.40991393    -0.12600
H1317       H  0.95725960  0.50581379  0.39064493     0.13600
H1318       H  0.92268124  0.03912461  0.46970573     0.13600
H1319       H  0.87811559  0.49265659  0.47940765     0.13600
H1320       H  0.90678130  0.45821775  0.39075823     0.13600
C1321       C  0.65414777  0.18025858  0.38361621    -0.15700
C1322       C  0.62845275  0.15424907  0.37325638    -0.30800
H1323       H  0.65683685  0.18702491  0.41170354     0.13400
H1324       H  0.62509988  0.14748599  0.34516244     0.13900
C1325       C  0.93303062  0.36574853  0.40768436    -0.12600
C1326       C  0.94094011  0.35087730  0.43366196     0.09600
C1327       C  0.92107667  0.33690238  0.46295450    -0.12600
C1328       C  0.89443475  0.33864203  0.46685832    -0.12600
C1329       C  0.88661372  0.35372974  0.44108892     0.09600
C1330       C  0.90590653  0.36678191  0.41109371    -0.12600
H1331       H  0.94794792  0.37674177  0.38482914     0.13600
H1332       H  0.92672386  0.32554483  0.48353186     0.13600
H1333       H  0.87996775  0.32824956  0.49019355     0.13600
H1334       H  0.90053207  0.37861520  0.39086382     0.13600
C1335       C  0.56626562  0.48733862  0.47418870    -0.12600
C1336       C  0.56144490  0.47182647  0.44127097     0.09600
C1337       C  0.55717350  0.48505026  0.41026023    -0.12600
C1338       C  0.55727215  0.51277240  0.41230169    -0.12600
C1339       C  0.55934121  0.02457754  0.42847573     0.09600
C1340       C  0.57751879  0.01939374  0.45274755    -0.12600
H1341       H  0.56962890  0.47796746  0.49867797     0.13600
H1342       H  0.55343980  0.47381949  0.38444361     0.13600
H1343       H  0.55358771  0.52211927  0.38799963     0.13600
H1344       H  0.59101900  0.03627272  0.47320538     0.13600
C1345       C  0.60592208  0.22320456  0.52078676    -0.12500
C1346       C  0.59426256  0.19682811  0.51168903    -0.14100
C1347       C  0.69804406  0.32057820  0.53742127    -0.12500
C1348       C  0.72520078  0.33327126  0.53119507    -0.14100
C1349       C  0.60217602  0.31579922  0.51295269    -0.12500
C1350       C  0.58906000  0.32863970  0.50298510    -0.14100
C1351       C  0.51585484  0.16400807  0.39479535    -0.15700
C1352       C  0.02773024  0.17576058  0.35789198    -0.30800
H1353       H  0.50307853  0.17163704  0.41082202     0.13400
H1354       H  0.04012147  0.16777063  0.34174158     0.13900
C1355       C  0.01359033  0.26318907  0.37931875    -0.15700
C1356       C  0.51313040  0.29124961  0.37223464    -0.30800
H1357       H  0.01740834  0.26054114  0.40746102     0.13400
H1358       H  0.51076687  0.29419195  0.34376340     0.13900
C1359       C  0.02163070  0.21168963  0.23199431    -0.15700
C1360       C  0.02058848  0.23183419  0.25472900    -0.30800
H1361       H  0.52642101  0.19660810  0.24902200     0.13400
H1362       H  0.01624027  0.24923225  0.24436028     0.13900
C1363       C  0.74785050  0.40252691  0.40468520    -0.15400
C1364       C  0.74483942  0.40463013  0.36922609    -0.30800
H1365       H  0.73130633  0.40324280  0.42268913     0.13400
H1366       H  0.76120462  0.40388921  0.35096041     0.13900
C1367       C  0.65112057  0.41134101  0.38450680    -0.15700
C1368       C  0.62423657  0.40707512  0.37162695    -0.30800
H1369       H  0.65471690  0.41226803  0.41336026     0.13400
H1370       H  0.61975668  0.40387752  0.34293586     0.13900
C1371       C  0.69529933  0.41898644  0.26390635    -0.15700
C1372       C  0.71273362  0.41370923  0.24108462    -0.30800
H1373       H  0.68187673  0.42866248  0.25402769     0.13400
H1374       H  0.72545194  0.40325982  0.25093282     0.13900
C1375       C  0.84498674  0.38422907  0.60454993    -0.15700
C1376       C  0.84790292  0.40457122  0.57961654    -0.30800
H1377       H  0.83813558  0.36101868  0.59630058     0.13400
H1378       H  0.85568974  0.42811723  0.58730834     0.13900
C1379       C  0.69493020  0.05420121  0.90288056    -0.15700
C1380       C  0.69175566  0.07014763  0.92956589    -0.30800
H1381       H  0.70485034  0.04006039  0.90836605     0.13400
H1382       H  0.68245203  0.08477848  0.92373373     0.13900
C1383       C  0.77479134  0.19175897  0.80408076    -0.12600
C1384       C  0.79305256  0.20310243  0.77302637     0.09600
C1385       C  0.78204380  0.18552333  0.74122654    -0.12600
C1386       C  0.75366379  0.15710497  0.74092581    -0.12600
C1387       C  0.73592301  0.14569855  0.77247578     0.09600
C1388       C  0.74691579  0.16369260  0.80382523    -0.12600
H1389       H  0.78221440  0.20441028  0.82913850     0.13600
H1390       H  0.79547623  0.19353238  0.71679138     0.13600
H1391       H  0.74594408  0.14383803  0.71631481     0.13600
H1392       H  0.73402920  0.15597849  0.82866924     0.13600
C1393       C  0.86998485  0.25303614  0.91328455    -0.15700
C1394       C  0.88917742  0.24929577  0.93471147    -0.30800
H1395       H  0.84963262  0.25188523  0.92474031     0.13400
H1396       H  0.91020951  0.25183314  0.92339403     0.13900
C1397       C  0.85024376  0.35009969  0.72544770    -0.15700
C1398       C  0.86227532  0.33343652  0.71408306    -0.30800
H1399       H  0.84377436  0.34919272  0.75342881     0.13400
H1400       H  0.87082222  0.33610003  0.68676809     0.13900
C1401       C  0.92254870  0.16924665  0.80355151    -0.12600
C1402       C  0.91178616  0.15068035  0.77257742     0.09600
C1403       C  0.90273211  0.16099029  0.74272202    -0.12600
C1404       C  0.90318222  0.18866426  0.74431413    -0.12600
C1405       C  0.91325165  0.20686872  0.77553826     0.09600
C1406       C  0.92356931  0.19727406  0.80487978    -0.12600
H1407       H  0.92981478  0.16192173  0.82692362     0.13600
H1408       H  0.89433796  0.14719040  0.71852821     0.13600
H1409       H  0.89522412  0.19564938  0.72124900     0.13600
H1410       H  0.93125075  0.21082899  0.82930347     0.13600
C1411       C  0.76465579  0.00755131  0.76834907    -0.12600
C1412       C  0.79044801  0.03273486  0.75210376     0.09600
C1413       C  0.78680783  0.05566500  0.73613054    -0.12600
C1414       C  0.75832271  0.05401103  0.73750891    -0.12600
C1415       C  0.73285813  0.02947160  0.75506511     0.09600
C1416       C  0.73620116  0.00598166  0.76990558    -0.12600
H1417       H  0.78009480  0.53066271  0.71921341     0.13600
H1418       H  0.80614925  0.07526878  0.72328571     0.13600
H1419       H  0.75655876  0.07252465  0.72574658     0.13600
H1420       H  0.73143350  0.52961710  0.72499583     0.13600
C1421       C  0.86088583  0.04680726  0.89590480    -0.15700
C1422       C  0.88317293  0.06265205  0.92044055    -0.30800
H1423       H  0.83719760  0.03098859  0.90417499     0.13400
H1424       H  0.90659471  0.07888533  0.91158735     0.13900
C1425       C  0.84389569  0.44166592  0.71224040    -0.15700
C1426       C  0.85593501  0.47013378  0.69893166    -0.30800
H1427       H  0.83519367  0.43710187  0.73958834     0.13400
H1428       H  0.86666239  0.47569174  0.67259553     0.13900
C1429       C  0.94524735  0.39836094  0.86623365    -0.12500
C1430       C  0.93173750  0.37198520  0.85690168    -0.14100
C1431       C  0.55975679  0.50224511  0.85307082    -0.12500
C1432       C  0.53254850  0.48978875  0.85927671    -0.14100
C1433       C  0.93008696  0.00430033  0.83627074    -0.12500
C1434       C  0.94258165  0.48909196  0.84563798    -0.14100
C1435       C  0.98715343  0.34869036  0.70064731    -0.15700
C1436       C  0.98367529  0.34601486  0.73656397    -0.30800
H1437       H  0.46976823  0.32507503  0.68474964     0.13400
H1438       H  0.00103469  0.36424885  0.75347218     0.13900
C1439       C  0.59138798  0.45253688  0.73632683    -0.15700
C1440       C  0.57863106  0.45084706  0.70412972    -0.30800
H1441       H  0.58447593  0.43149321  0.75098250     0.13400
H1442       H  0.58700680  0.47179845  0.68868814     0.13900
C1443       C  0.54386013  0.39511932  0.59159395    -0.15700
C1444       C  0.52187692  0.37618494  0.56827682    -0.30800
H1445       H  0.56685614  0.41153310  0.58169897     0.13400
H1446       H  0.49847858  0.36063415  0.57768953     0.13900
C1447       C  0.59842463  0.08064282  0.73176175    -0.15700
C1448       C  0.58628689  0.07183154  0.69864992    -0.30800
H1449       H  0.59056913  0.09247207  0.74910309     0.13400
H1450       H  0.59543695  0.06174957  0.68042271     0.13900
C1451       C  0.97747274  0.06649402  0.69101607    -0.15700
C1452       C  0.97697468  0.08144405  0.72048532    -0.30800
H1453       H  0.49682083  0.07372769  0.75094501     0.13400
H1454       H  0.99783527  0.09436682  0.73655759     0.13900
C1455       C  0.53020183  0.08497859  0.59859788    -0.15700
C1456       C  0.54618456  0.08034755  0.57292583    -0.30800
H1457       H  0.51485203  0.09312338  0.59111457     0.13400
H1458       H  0.56101738  0.07153288  0.58016148     0.13900
C1459       C  0.53637699  0.57729757  0.64461600     0.81000
N1460       N  0.55817050  0.57748809  0.66645904    -0.77300
C1461       C  0.55506829  0.57722354  0.70278954     0.83400
N1462       N  0.53053464  0.57736259  0.71702378    -0.77300
C1463       C  0.50878768  0.57723327  0.69568131     0.83500
N1464       N  0.51157343  0.57704280  0.65938756    -0.79000
C1465       C  0.54263413  0.90103566  0.61631501     0.81000
N1466       N  0.51899727  0.87684364  0.63361895    -0.77300
C1467       C  0.51759285  0.87606356  0.67001215     0.83400
N1468       N  0.54033890  0.90031178  0.68933973    -0.77300
C1469       C  0.56416427  0.92486541  0.67178817     0.83500
N1470       N  0.56507146  0.92469699  0.63548141    -0.79000
C1471       C  0.95707252  0.97456084  0.85661033     0.81000
N1472       N  0.98833473  0.98933485  0.85807200    -0.77300
C1473       C  0.50933906  0.97057382  0.86256727     0.83400
N1474       N  0.98549969  0.94189701  0.86300811    -0.77300
C1475       C  0.95419272  0.92720886  0.86163588     0.83500
N1476       N  0.94003097  0.94351800  0.85789736    -0.79000
O1477       O  0.82906553  0.53285883  0.74389877    -0.84600
O1478       O  0.87430844  0.59214092  0.75782569    -0.81600
C1479       C  0.89686386  0.61451841  0.77344301     0.98900
O1480       O  0.91818215  0.61169692  0.78717351    -0.81700
O1481       O  0.89229169  0.57384198  0.84695339    -0.84300
C1482       C  0.87554728  0.54932661  0.86431384     1.03400
O1483       O  0.86573814  0.52345066  0.84976468    -0.77100
O1484       O  0.82437099  0.51893256  0.80028933    -0.77300
C1485       C  0.81374562  0.52480813  0.77296986     1.03400
O1486       O  0.87657922  0.52272000  0.71359825    -0.84600
O1487       O  0.92012653  0.58326478  0.72286601    -0.81600
C1488       C  0.94330617  0.58240002  0.73427141     0.98900
O1489       O  0.94451082  0.57541588  0.76644325    -0.81700
O1490       O  0.92321202  0.54217795  0.82818295    -0.84300
C1491       C  0.91387665  0.51494037  0.81852757     1.03400
O1492       O  0.89047924  0.50009038  0.79873813    -0.77100
O1493       O  0.86560912  0.99280752  0.75453704    -0.77200
C1494       C  0.86137651  0.99515266  0.72166290     1.03300
Cr1495     Cr  0.87557210  0.55700642  0.73774981     1.93700
Cr1496     Cr  0.91699261  0.57394044  0.80513970     1.93200
Cr1497     Cr  0.85802279  0.51054817  0.79844433     1.39100
O1498       O  0.88358086  0.54733083  0.78048358    -1.22300
O1499       O  0.88266950  0.73206839  0.75463603    -0.84600
O1500       O  0.83549809  0.74005285  0.74100657    -0.81600
C1501       C  0.81706262  0.72820293  0.76738208     0.98900
O1502       O  0.82332908  0.74157419  0.79740894    -0.81700
O1503       O  0.85845640  0.77416802  0.85533148    -0.84300
C1504       C  0.86955588  0.75874650  0.86771919     1.03400
O1505       O  0.88794802  0.75454050  0.84928846    -0.77100
O1506       O  0.92177113  0.75386654  0.79181938    -0.77300
C1507       C  0.90246480  0.73080433  0.77356176     1.03400
O1508       O  0.92850274  0.79490356  0.73231954    -0.84600
O1509       O  0.88060336  0.80390218  0.72305240    -0.81600
C1510       C  0.85936271  0.80870153  0.73087848     0.98900
O1511       O  0.84319639  0.79710001  0.75869256    -0.81700
O1512       O  0.88412280  0.82898561  0.81359038    -0.84300
C1513       C  0.90663253  0.83762609  0.83474377     1.03400
O1514       O  0.91623500  0.81996143  0.84350522    -0.77100
O1515       O  0.94596185  0.81924612  0.78362276    -0.77200
C1516       C  0.94917440  0.81750094  0.75045603     1.03300
Cr1517     Cr  0.88214794  0.76868774  0.74125323     1.93700
Cr1518     Cr  0.85452633  0.78504748  0.80477034     1.93200
Cr1519     Cr  0.91549758  0.78623993  0.81463736     1.39100
O1520       O  0.88411539  0.77998603  0.78676598    -1.22300
O1521       O  0.70302952  0.58521626  0.75945342    -0.84600
O1522       O  0.68529118  0.52376489  0.75789978    -0.81600
C1523       C  0.69859579  0.52253539  0.78600580     0.98900
O1524       O  0.68749585  0.52234301  0.81644914    -0.81700
O1525       O  0.65563630  0.53366663  0.86921610    -0.84300
C1526       C  0.66996126  0.56175795  0.87809147     1.03400
O1527       O  0.67406239  0.58195939  0.85540594    -0.77100
O1528       O  0.68133834  0.60743270  0.78763947    -0.77300
C1529       C  0.70440590  0.60915345  0.77171750     1.03400
O1530       O  0.64448421  0.56975688  0.73085031    -0.84600
O1531       O  0.62368584  0.50770717  0.73761537    -0.81600
C1532       C  0.61644798  0.98467196  0.74404458     0.98900
O1533       O  0.61578999  0.98518615  0.77765999    -0.81700
O1534       O  0.61801666  0.00857574  0.84342473    -0.84300
C1535       C  0.59106655  0.51589396  0.84138098     1.03400
O1536       O  0.60872621  0.54468636  0.84356754    -0.77100
O1537       O  0.61552401  0.56729863  0.77568379    -0.77200
C1538       C  0.62163140  0.57063373  0.74263321     1.03300
Cr1539     Cr  0.66312661  0.54633783  0.75017264     1.93700
Cr1540     Cr  0.64393947  0.51182066  0.82172319     1.93200
Cr1541     Cr  0.64553211  0.57310482  0.81393275     1.39100
O1542       O  0.65113814  0.54404502  0.79558385    -1.22300
C1543       C  0.84255098  0.88787818  0.63903016     0.81000
N1544       N  0.84677309  0.91430578  0.65435590    -0.77300
C1545       C  0.84855206  0.91715052  0.69093829     0.83400
N1546       N  0.84610703  0.89400565  0.71136814    -0.77300
C1547       C  0.84219149  0.86817305  0.69621754     0.83500
N1548       N  0.84035899  0.86515576  0.66012225    -0.79000
C1549       C  0.68944079  0.90017620  0.29563901     0.81000
N1550       N  0.66842286  0.90198782  0.31637548    -0.77300
C1551       C  0.67014417  0.90151767  0.35269713     0.83400
N1552       N  0.69351225  0.89962513  0.36823105    -0.77300
C1553       C  0.71477599  0.89782342  0.34746907     0.83500
N1554       N  0.71258273  0.89812478  0.31127503    -0.79000
C1555       C  0.01900547  0.72637201  0.30972717     0.81000
N1556       N  0.01639580  0.70081565  0.32549087    -0.77300
C1557       C  0.01170433  0.69662177  0.36167875     0.83400
N1558       N  0.00967226  0.71782800  0.38156785    -0.77300
C1559       C  0.01229352  0.74312028  0.36615247     0.83500
N1560       N  0.01698847  0.74734814  0.33028673    -0.79000
C1561       C  0.61613549  0.80094195  0.52099493     0.81000
N1562       N  0.60031810  0.76984652  0.52312582    -0.77300
C1563       C  0.61550516  0.75497320  0.53070787     0.83400
N1564       N  0.64661750  0.77113799  0.53521380    -0.77300
C1565       C  0.66243632  0.80223517  0.53324656     0.83500
N1566       N  0.64726327  0.81712742  0.52560026    -0.79000
O1567       O  0.99500081  0.87920386  0.41777841    -0.84600
O1568       O  0.55234240  0.92338165  0.39759766    -0.81600
C1569       C  0.55939895  0.93957190  0.42587824     0.98900
O1570       O  0.56535000  0.93043917  0.45448855    -0.81700
O1571       O  0.55683668  0.88928877  0.50701401    -0.84300
C1572       C  0.52918652  0.87654735  0.51808175     1.03400
O1573       O  0.50689336  0.85858213  0.49817382    -0.77100
O1574       O  0.97531390  0.83516922  0.44589668    -0.77300
C1575       C  0.97222436  0.85620482  0.43206397     1.03400
O1576       O  0.50730347  0.83275650  0.37688227    -0.84600
O1577       O  0.56757070  0.87885996  0.37202517    -0.81600
C1578       C  0.59484863  0.89596829  0.38311177     0.98900
O1579       O  0.60026093  0.91029761  0.41261029    -0.81700
O1580       O  0.58743173  0.86670222  0.46299833    -0.84300
C1581       C  0.57218336  0.84279362  0.48141901     1.03400
O1582       O  0.54370173  0.83158532  0.48713257    -0.77100
O1583       O  0.51620928  0.81032683  0.42148919    -0.77200
C1584       C  0.51010877  0.81095278  0.38881776     1.03300
Cr1585     Cr  0.53076299  0.87735347  0.39227070     1.93700
Cr1586     Cr  0.57466955  0.89719788  0.45748850     1.93200
Cr1587     Cr  0.51234496  0.83588446  0.45874922     1.39100
O1588       O  0.53932714  0.87027190  0.43622746    -1.22300
O1589       O  0.55706941  0.56921821  0.42055902    -0.84600
O1590       O  0.99451359  0.56339943  0.40884994    -0.81600
C1591       C  0.97810285  0.55400680  0.43693966     0.98900
O1592       O  0.98813034  0.56822981  0.46623899    -0.81700
O1593       O  0.50574934  0.58049173  0.52164088    -0.84300
C1594       C  0.52691406  0.58543106  0.54349107     1.03400
O1595       O  0.55486304  0.60090028  0.53391718    -0.77100
O1596       O  0.56263817  0.56848755  0.47899799    -0.77300
C1597       C  0.56021896  0.55658606  0.44843435     1.03400
O1598       O  0.57721107  0.63350648  0.40316677    -0.84600
O1599       O  0.51718915  0.61902715  0.39870966    -0.81600
C1600       C  0.51568385  0.64025456  0.41477478     0.98900
O1601       O  0.51708703  0.64196264  0.44850957    -0.81700
O1602       O  0.54344455  0.64628305  0.51348193    -0.84300
C1603       C  0.57223096  0.66417170  0.50899245     1.03400
O1604       O  0.58842175  0.65549222  0.49309741    -0.77100
O1605       O  0.60354541  0.62558717  0.44356054    -0.77200
C1606       C  0.60289007  0.64016970  0.41657761     1.03300
Cr1607     Cr  0.53747576  0.59534406  0.41497927     1.93700
Cr1608     Cr  0.51283635  0.61054851  0.48323353     1.93200
Cr1609     Cr  0.57453154  0.61188497  0.48538776     1.39100
O1610       O  0.54127701  0.60566044  0.46123399    -1.22300
O1611       O  0.85552584  0.91524225  0.41699734    -0.84600
O1612       O  0.84285758  0.85617537  0.41504339    -0.81600
C1613       C  0.85643998  0.85328943  0.44219539     0.98900
O1614       O  0.84582234  0.85122080  0.47338556    -0.81700
O1615       O  0.81814892  0.86364837  0.52979743    -0.84300
C1616       C  0.83436360  0.89211301  0.53715325     1.03400
O1617       O  0.83852887  0.91167031  0.51380932    -0.77100
O1618       O  0.83536174  0.93639055  0.44955228    -0.77300
C1619       C  0.85768392  0.93874641  0.43140507     1.03400
O1620       O  0.79131542  0.89471935  0.39832690    -0.84600
O1621       O  0.77774570  0.83517144  0.40100108    -0.81600
C1622       C  0.77128350  0.80995907  0.41500206     0.98900
O1623       O  0.78594227  0.80981720  0.44249732    -0.81700
O1624       O  0.75996810  0.82774396  0.49391814    -0.84300
C1625       C  0.75300744  0.84451979  0.51136519     1.03400
O1626       O  0.77209129  0.87295622  0.51523203    -0.77100
O1627       O  0.76953776  0.89362692  0.44970505    -0.77200
C1628       C  0.77008076  0.89512485  0.41615123     1.03300
Cr1629     Cr  0.81624415  0.87513312  0.41133584     1.93700
Cr1630     Cr  0.80308955  0.84060588  0.48298213     1.93200
Cr1631     Cr  0.80439490  0.90148597  0.48009923     1.39100
O1632       O  0.80816630  0.87255223  0.45803659    -1.22300
C1633       C  0.68899353  0.71887573  0.29760961     0.81000
N1634       N  0.71161780  0.74451624  0.31431428    -0.77300
C1635       C  0.71017973  0.74872440  0.35016910     0.83400
N1636       N  0.68537052  0.72708906  0.36940812    -0.77300
C1637       C  0.66222438  0.70168771  0.35234714     0.83500
N1638       N  0.66433276  0.69786013  0.31668752    -0.79000
C1639       C  0.88212991  0.56694902  0.96500323     0.81000
N1640       N  0.90387650  0.58827314  0.98746971    -0.77300
C1641       C  0.90143852  0.58366416  0.02354712     0.83400
N1642       N  0.87711212  0.55764951  0.03704960    -0.77300
C1643       C  0.85494584  0.53625663  0.01499980     0.83500
N1644       N  0.85757962  0.54098234  0.97894819    -0.79000
C1645       C  0.88156528  0.74468894  0.96500783     0.81000
N1646       N  0.90460101  0.74545961  0.98447887    -0.77300
C1647       C  0.90452044  0.74645094  0.02091100     0.83400
N1648       N  0.88058273  0.74667599  0.03819752    -0.77300
C1649       C  0.85718328  0.74596748  0.01842753     0.83500
N1650       N  0.85809688  0.74500173  0.98213781    -0.79000
C1651       C  0.79701398  0.63774962  0.20115920     0.81000
N1652       N  0.78024950  0.60654187  0.20215752    -0.77300
C1653       C  0.79500181  0.59052724  0.20210645     0.83400
N1654       N  0.82611877  0.60550833  0.19976487    -0.77300
C1655       C  0.84276429  0.63646826  0.19841890     0.83500
N1656       N  0.82828877  0.65269914  0.19862431    -0.79000
O1657       O  0.54654046  0.75426959  0.07841340    -0.84600
O1658       O  0.53504075  0.69644444  0.06538862    -0.81600
C1659       C  0.54352460  0.68859036  0.09346781     0.98900
O1660       O  0.52675078  0.68047704  0.12121574    -0.81700
O1661       O  0.99249837  0.68504155  0.19295213    -0.84300
C1662       C  0.50379743  0.70794582  0.18932496     1.03400
O1663       O  0.01707669  0.73527551  0.19307768    -0.77100
O1664       O  0.52195994  0.77019550  0.11229314    -0.77300
C1665       C  0.54596508  0.77530024  0.09558543     1.03400
O1666       O  0.98114981  0.74427770  0.07363224    -0.84600
O1667       O  0.96960967  0.68740172  0.05997614    -0.81600
C1668       C  0.96224792  0.66020592  0.06558646     0.98900
O1669       O  0.97219169  0.65356047  0.09303220    -0.81700
O1670       O  0.93986312  0.66221041  0.14723906    -0.84300
C1671       C  0.93222436  0.67597273  0.16933886     1.03400
O1672       O  0.95163723  0.70224543  0.18145306    -0.77100
O1673       O  0.95821456  0.73893843  0.12553717    -0.77200
C1674       C  0.95975321  0.74375009  0.09226294     1.03300
Cr1675     Cr  0.50968396  0.71677537  0.06072834     1.93700
Cr1676     Cr  0.98366017  0.67467961  0.14089623     1.93200
Cr1677     Cr  0.98844475  0.73631219  0.15694804     1.39100
O1678       O  0.99291976  0.71179181  0.12635722    -1.22300
O1679       O  0.72428185  0.89569479  0.08447010    -0.84600
O1680       O  0.67621089  0.90584156  0.07641808    -0.81600
C1681       C  0.65887968  0.89286961  0.10332471     0.98900
O1682       O  0.66702651  0.90427928  0.13423044    -0.81700
O1683       O  0.70475082  0.93421198  0.19090595    -0.84300
C1684       C  0.71585913  0.91771395  0.19919964     1.03400
O1685       O  0.73449466  0.91577220  0.17863905    -0.77100
O1686       O  0.76622159  0.91922070  0.11742947    -0.77300
C1687       C  0.74658136  0.89578912  0.10001785     1.03400
O1688       O  0.76825649  0.95836354  0.06318448    -0.84600
O1689       O  0.72101343  0.97027668  0.06069711    -0.81600
C1690       C  0.70123222  0.97592632  0.07318494     0.98900
O1691       O  0.68520362  0.96135006  0.10003918    -0.81700
O1692       O  0.72780256  0.99092169  0.15340553    -0.84300
C1693       C  0.75457611  0.50279524  0.17019545     1.03400
O1694       O  0.76148920  0.98146305  0.17824574    -0.77100
O1695       O  0.78794437  0.98351255  0.11368166    -0.77200
C1696       C  0.78988700  0.98072729  0.08040741     1.03300
Cr1697     Cr  0.72273451  0.93327781  0.07451690     1.93700
Cr1698     Cr  0.69835105  0.94735128  0.14287568     1.93200
Cr1699     Cr  0.75995247  0.94945041  0.14503054     1.39100
O1700       O  0.72704051  0.94332129  0.12067193    -1.22300
O1701       O  0.68167120  0.70353946  0.07570467    -0.84600
O1702       O  0.73007987  0.76132709  0.08583193    -0.81600
C1703       C  0.75085275  0.78394006  0.10282074     0.98900
O1704       O  0.76978886  0.78092155  0.12214868    -0.81700
O1705       O  0.73574264  0.74835945  0.18063991    -0.84300
C1706       C  0.71762236  0.72666343  0.20073155     1.03400
O1707       O  0.70691902  0.69901202  0.19096721    -0.77100
O1708       O  0.67052850  0.69183968  0.13266678    -0.77300
C1709       C  0.66313207  0.69665796  0.10214183     1.03400
O1710       O  0.72666896  0.68511909  0.05892592    -0.84600
O1711       O  0.77541292  0.74337128  0.06606550    -0.81600
C1712       C  0.79637633  0.74310062  0.08508821     0.98900
O1713       O  0.79332745  0.73962761  0.11843913    -0.81700
O1714       O  0.76397301  0.71115163  0.17956818    -0.84300
C1715       C  0.75441549  0.68327358  0.17222138     1.03400
O1716       O  0.73197165  0.66818518  0.15122689    -0.77100
O1717       O  0.69020757  0.65481285  0.09619482    -0.77200
C1718       C  0.70554950  0.65872200  0.06771849     1.03300
Cr1719     Cr  0.72880105  0.72293397  0.07519035     1.93700
Cr1720     Cr  0.76311808  0.74294613  0.14792777     1.93200
Cr1721     Cr  0.70216828  0.68112969  0.14114633     1.39100
O1722       O  0.73142300  0.71570095  0.12120185    -1.22300
C1723       C  0.68299273  0.55418094  0.97937430     0.81000
N1724       N  0.68454080  0.53227187  0.99866064    -0.77300
C1725       C  0.68520514  0.53317819  0.03511355     0.83400
N1726       N  0.68390284  0.55593450  0.05237459    -0.77300
C1727       C  0.68311047  0.57841885  0.03377279     0.83500
N1728       N  0.68267795  0.57764245  0.99704073    -0.79000
C1729       C  0.69922430  0.63277235  0.04376027    -0.15700
C1730       C  0.68353297  0.60346099  0.05461293    -0.30800
H1731       H  0.71037270  0.63820581  0.01764662     0.13400
H1732       H  0.67448145  0.59828984  0.08178736     0.13900
C1733       C  0.77240168  0.86676079  0.11884008    -0.12600
C1734       C  0.74970369  0.86828418  0.09839712     0.09600
C1735       C  0.72888024  0.84256077  0.07796682    -0.12600
C1736       C  0.73009651  0.81572612  0.07869552    -0.12600
C1737       C  0.75208998  0.81374748  0.10000286     0.09600
C1738       C  0.77354817  0.83975176  0.11969050    -0.12600
H1739       H  0.78880066  0.88618737  0.13495912     0.13600
H1740       H  0.71115796  0.84290381  0.06191732     0.13600
H1741       H  0.71317750  0.79619204  0.06310086     0.13600
H1742       H  0.79072837  0.83900678  0.13637217     0.13600
C1743       C  0.70833425  0.01418863  0.02656001    -0.15700
C1744       C  0.69667428  0.00016473  0.05804446    -0.30800
H1745       H  0.72009739  0.00633941  0.00908404     0.13400
H1746       H  0.68324943  0.00705496  0.07404083     0.13900
C1747       C  0.59393184  0.69971931  0.06468168    -0.12600
C1748       C  0.57343639  0.68907654  0.09411388     0.09600
C1749       C  0.58249439  0.68018679  0.12527138    -0.12600
C1750       C  0.61123713  0.68235792  0.12729406    -0.12600
C1751       C  0.63205705  0.69345918  0.09821799     0.09600
C1752       C  0.62287875  0.70183599  0.06668537    -0.12600
H1753       H  0.58781495  0.70688808  0.04026708     0.13600
H1754       H  0.56750940  0.67190508  0.14850741     0.13600
H1755       H  0.61723402  0.67550987  0.15205298     0.13600
H1756       H  0.63824766  0.71049766  0.04381339     0.13600
C1757       C  0.57904076  0.82640439  0.12465010    -0.12600
C1758       C  0.57370541  0.80636459  0.09594989     0.09600
C1759       C  0.59551494  0.81594066  0.06808960    -0.12600
C1760       C  0.62271204  0.84475490  0.06950478    -0.12600
C1761       C  0.62873744  0.86414791  0.09914500     0.09600
C1762       C  0.60641752  0.85490816  0.12639335    -0.12600
H1763       H  0.56254830  0.81960634  0.14637766     0.13600
H1764       H  0.59168217  0.80099346  0.04541265     0.13600
H1765       H  0.63950771  0.85134455  0.04815817     0.13600
H1766       H  0.61036104  0.86952323  0.14945231     0.13600
C1767       C  0.76922784  0.66840556  0.18773552    -0.12500
C1768       C  0.78166326  0.65460169  0.19651813    -0.14100
C1769       C  0.77824510  0.55809784  0.19708378    -0.12500
C1770       C  0.76721998  0.53206749  0.18699997    -0.14100
C1771       C  0.87489859  0.65119092  0.19086315    -0.12500
C1772       C  0.90118233  0.66191278  0.18150667    -0.14100
C1773       C  0.82987904  0.74559950  0.03438147    -0.15700
C1774       C  0.82532106  0.74668352  0.06961257    -0.30800
H1775       H  0.81221220  0.74350240  0.01588913     0.13400
H1776       H  0.84270657  0.74835356  0.08825181     0.13900
C1777       C  0.93518510  0.74788397  0.07543513    -0.15700
C1778       C  0.93069259  0.74644169  0.03971978    -0.30800
H1779       H  0.91898304  0.74965822  0.09295075     0.13400
H1780       H  0.94683651  0.74411725  0.02267906     0.13900
C1781       C  0.82206448  0.00592300  0.02666705    -0.15700
C1782       C  0.81837429  0.00390306  0.06245664    -0.30800
H1783       H  0.80354306  0.98966921  0.00916315     0.13400
H1784       H  0.83673218  0.02070087  0.07973660     0.13900
C1785       C  0.92442433  0.60676313  0.04849970    -0.15700
C1786       C  0.94210402  0.63644367  0.03940358    -0.30800
H1787       H  0.92504847  0.59967433  0.07583716     0.13400
H1788       H  0.93982942  0.64393274  0.01287956     0.13900
C1789       C  0.69154287  0.71243932  0.25952981    -0.15700
C1790       C  0.71162026  0.73409830  0.23699693    -0.30800
H1791       H  0.67704792  0.68892165  0.25010230     0.13400
H1792       H  0.72530647  0.75782911  0.24601062     0.13900
C1793       C  0.73474563  0.77799120  0.36653614    -0.15700
C1794       C  0.74631934  0.78020678  0.39972900    -0.30800
H1795       H  0.74506507  0.79823113  0.34952436     0.13400
H1796       H  0.73765474  0.75960622  0.41590454     0.13900
C1797       C  0.93936911  0.00214781  0.40537288    -0.12600
C1798       C  0.94689627  0.52638011  0.43528729     0.09600
C1799       C  0.92409045  0.52235801  0.45993373    -0.12600
C1800       C  0.89130016  0.99361528  0.45052845    -0.12600
C1801       C  0.88671891  0.96928501  0.42818929     0.09600
C1802       C  0.91095258  0.97400711  0.40516374    -0.12600
H1803       H  0.95796148  0.00489614  0.38827030     0.13600
H1804       H  0.92882968  0.53993829  0.47969403     0.13600
H1805       H  0.87330145  0.99089277  0.46865527     0.13600
H1806       H  0.90821162  0.95572264  0.38764826     0.13600
C1807       C  0.63326358  0.67915045  0.37049307    -0.15700
C1808       C  0.63246196  0.66487006  0.40107126    -0.30800
H1809       H  0.61186278  0.67158786  0.35586144     0.13400
H1810       H  0.65398455  0.67095579  0.41459361     0.13900
C1811       C  0.93389087  0.86902186  0.40731225    -0.12600
C1812       C  0.94171643  0.85379681  0.43286745     0.09600
C1813       C  0.92062332  0.83725566  0.46036999    -0.12600
C1814       C  0.89274791  0.83676436  0.46299827    -0.12600
C1815       C  0.88498165  0.85216422  0.43767201     0.09600
C1816       C  0.90557973  0.86786862  0.40941898    -0.12600
H1817       H  0.94973484  0.88193598  0.38581901     0.13600
H1818       H  0.92612907  0.82549673  0.48056657     0.13600
H1819       H  0.87730292  0.82447101  0.48504445     0.13600
H1820       H  0.90027146  0.88013145  0.38970896     0.13600
C1821       C  0.57780026  0.99198655  0.45161976    -0.12600
C1822       C  0.56045843  0.96935657  0.42566724     0.09600
C1823       C  0.54280816  0.97480090  0.40085156    -0.12600
C1824       C  0.54196654  0.00195599  0.40250371    -0.12600
C1825       C  0.56151654  0.52790807  0.44542583     0.09600
C1826       C  0.56626143  0.51486633  0.47623818    -0.12600
H1827       H  0.59156650  0.98846017  0.47116233     0.13600
H1828       H  0.52896463  0.95767310  0.38077532     0.13600
H1829       H  0.52776460  0.00528445  0.38341610     0.13600
H1830       H  0.56967727  0.52578412  0.50221714     0.13600
C1831       C  0.59949774  0.72219701  0.52823891    -0.12500
C1832       C  0.58669990  0.69516993  0.52161844    -0.14100
C1833       C  0.69546929  0.81867279  0.53254919    -0.12500
C1834       C  0.72260345  0.83122464  0.52590045    -0.14100
C1835       C  0.60055112  0.81625039  0.50923259    -0.12500
C1836       C  0.58753843  0.82848570  0.49698814    -0.14100
C1837       C  0.51218111  0.66403257  0.39530787    -0.15700
C1838       C  0.00907142  0.66991447  0.38087126    -0.30800
H1839       H  0.50911148  0.67961507  0.41238398     0.13400
H1840       H  0.99979433  0.66589030  0.40794245     0.13900
C1841       C  0.01112309  0.76601128  0.38910128    -0.15700
C1842       C  0.50671741  0.78645997  0.36400014    -0.30800
H1843       H  0.01251234  0.76355968  0.41790536     0.13400
H1844       H  0.50311471  0.78867553  0.33567523     0.13900
C1845       C  0.01707541  0.70917138  0.24688414    -0.15700
C1846       C  0.02161183  0.73115532  0.27033867    -0.30800
H1847       H  0.51118929  0.68747305  0.23755897     0.13400
H1848       H  0.02345526  0.75212738  0.26034932     0.13900
C1849       C  0.74531140  0.89777199  0.39888980    -0.15400
C1850       C  0.74070595  0.89619311  0.36340810    -0.30800
H1851       H  0.72955274  0.90016360  0.41655561     0.13400
H1852       H  0.75624027  0.89360039  0.34558317     0.13900
C1853       C  0.64674405  0.90297149  0.37513839    -0.15700
C1854       C  0.62033902  0.89888449  0.36087818    -0.30800
H1855       H  0.65035380  0.90556357  0.40400072     0.13400
H1856       H  0.61581179  0.89418159  0.33235438     0.13900
C1857       C  0.68917359  0.90451301  0.25679632    -0.15700
C1858       C  0.70967118  0.90353847  0.23481015    -0.30800
H1859       H  0.67387519  0.91194939  0.24669970     0.13400
H1860       H  0.72449886  0.89537687  0.24441701     0.13900
C1861       C  0.83785520  0.88136741  0.60026174    -0.15700
C1862       C  0.84504122  0.90228533  0.57442030    -0.30800
H1863       H  0.82720009  0.85728753  0.59279143     0.13400
H1864       H  0.85631708  0.92654743  0.58114696     0.13900
C1865       C  0.67992918  0.57052171  0.91620583    -0.15700
C1866       C  0.67874815  0.54980949  0.93981537    -0.30800
H1867       H  0.68650054  0.59342966  0.92532422     0.13400
H1868       H  0.67316007  0.52740323  0.92979569     0.13900
C1869       C  0.76154958  0.69445148  0.78253636    -0.12600
C1870       C  0.78752762  0.69857991  0.76387160     0.09600
C1871       C  0.78573520  0.67334160  0.74593213    -0.12600
C1872       C  0.75868316  0.64414376  0.74798679    -0.12600
C1873       C  0.73289309  0.63992180  0.76754614     0.09600
C1874       C  0.73456129  0.66563482  0.78412584    -0.12600
H1875       H  0.76235315  0.71353098  0.79662055     0.13600
H1876       H  0.80565512  0.67590633  0.73176912     0.13600
H1877       H  0.75814130  0.62484521  0.73484060     0.13600
H1878       H  0.71521172  0.66341185  0.79926434     0.13600
C1879       C  0.86305016  0.74873234  0.90529384    -0.15700
C1880       C  0.88344431  0.74578717  0.92546827    -0.30800
H1881       H  0.84355111  0.74853137  0.91790316     0.13400
H1882       H  0.90369354  0.74738235  0.91305055     0.13900
C1883       C  0.84217121  0.84476467  0.71902393    -0.15700
C1884       C  0.85358457  0.82787196  0.70684348    -0.30800
H1885       H  0.83632231  0.84399694  0.74723150     0.13400
H1886       H  0.86209438  0.83077783  0.67947115     0.13900
C1887       C  0.92366044  0.67034049  0.79107083    -0.12600
C1888       C  0.89866528  0.64444056  0.77452675     0.09600
C1889       C  0.87528207  0.64734982  0.75819733    -0.12600
C1890       C  0.87695701  0.67548726  0.75789206    -0.12600
C1891       C  0.90200730  0.70154375  0.77403362     0.09600
C1892       C  0.92526968  0.69871259  0.79092948    -0.12600
H1893       H  0.94198739  0.66870656  0.80397318     0.13600
H1894       H  0.85563666  0.62787612  0.74539302     0.13600
H1895       H  0.85835231  0.67669207  0.74504893     0.13600
H1896       H  0.94467165  0.71835461  0.80380183     0.13600
C1897       C  0.76929183  0.52645409  0.74534860    -0.12600
C1898       C  0.78326782  0.52224004  0.77555955     0.09600
C1899       C  0.76846294  0.51679485  0.80908439    -0.12600
C1900       C  0.74072037  0.51639631  0.81251433    -0.12600
C1901       C  0.72704162  0.52118888  0.78244594     0.09600
C1902       C  0.74140266  0.52581437  0.74873469    -0.12600
H1903       H  0.76665640  0.98943147  0.78085661     0.13600
H1904       H  0.77865563  0.51348112  0.83295455     0.13600
H1905       H  0.73019462  0.51270248  0.83876356     0.13600
H1906       H  0.71707488  0.98679100  0.78356274     0.13600
C1907       C  0.86794009  0.54930413  0.90248992    -0.15700
C1908       C  0.88652030  0.57147578  0.92567905    -0.30800
H1909       H  0.84842544  0.52811206  0.91268214     0.13400
H1910       H  0.90693906  0.59209040  0.91585180     0.13900
C1911       C  0.85384564  0.94455696  0.71060648    -0.15700
C1912       C  0.85577117  0.96987365  0.69688883    -0.30800
H1913       H  0.85620060  0.94328090  0.73947556     0.13400
H1914       H  0.85316700  0.97187277  0.66825073     0.13900
C1915       C  0.93643987  0.89467086  0.85740582    -0.12500
C1916       C  0.92196600  0.86807311  0.84888631    -0.14100
C1917       C  0.56953529  0.00252416  0.85426721    -0.12500
C1918       C  0.54234804  0.98850062  0.86096624    -0.14100
C1919       C  0.92920409  0.50039581  0.83245858    -0.12500
C1920       C  0.94238261  0.99116603  0.84754559    -0.14100
C1921       C  0.98301049  0.84613745  0.69838792    -0.15700
C1922       C  0.97781131  0.84291091  0.73389003    -0.30800
H1923       H  0.47257947  0.83202901  0.66941896     0.13400
H1924       H  0.99460033  0.86059144  0.75181376     0.13900
C1925       C  0.59170924  0.95634598  0.72602125    -0.15700
C1926       C  0.58947430  0.95244004  0.69036761    -0.30800
H1927       H  0.57440525  0.93822745  0.74294089     0.13400
H1928       H  0.60685495  0.97062805  0.67357633     0.13900
C1929       C  0.54588291  0.90089659  0.57715271    -0.15700
C1930       C  0.52311108  0.88049900  0.55570038    -0.30800
H1931       H  0.56837797  0.91715652  0.56588917     0.13400
H1932       H  0.50024392  0.86491404  0.56653655     0.13900
C1933       C  0.60206623  0.57523171  0.71693807    -0.15700
C1934       C  0.57698340  0.57568122  0.72767764    -0.30800
H1935       H  0.60777334  0.57711935  0.68859095     0.13400
H1936       H  0.57153561  0.57383670  0.75611198     0.13900
C1937       C  0.99314043  0.58674166  0.71923171    -0.15700
C1938       C  0.96863459  0.58878158  0.70910311    -0.30800
H1939       H  0.48527424  0.58325350  0.74134257     0.13400
H1940       H  0.96602796  0.59324915  0.68121243     0.13900
C1941       C  0.54134177  0.58001639  0.60530386    -0.15700
C1942       C  0.51931747  0.57577295  0.58145790    -0.30800
H1943       H  0.56451727  0.58740467  0.59588410     0.13400
H1944       H  0.49585531  0.56745742  0.59053362     0.13900
loop_ 
_geom_bond_atom_site_label_1 
_geom_bond_atom_site_label_2 
_geom_bond_distance 
_geom_bond_site_symmetry_2 
_ccdc_geom_bond_type 
C1            N2   1.360       .  A
C1            N6   1.358       .  A
C1          C483   1.482       .  S
N2            C3   1.364       .  A
C3            N4   1.362       .  A
C3          C476   1.483       .  S
N4            C5   1.360       .  A
C5            N6   1.352       .  A
C5         C1451   1.475   1_455  S
C7            N8   1.360       .  A
C7           N12   1.357       .  A
C7          C471   1.485       .  S
N8            C9   1.363       .  A
C9           N10   1.372       .  A
C9         C1435   1.496   1_455  S
N10          C11   1.370       .  A
C11          N12   1.359       .  A
C11         C468   1.494       .  S
C13          N14   1.357       .  A
C13          N18   1.353       .  A
C13         C462   1.427       .  S
N14         C987   1.357       .  A
C15         N986   1.353   1_455  A
C15         N988   1.357   1_455  A
C15         C460   1.423       .  S
N16          C17   1.353       .  A
N16         C987   1.354       .  A
C17          N18   1.353       .  A
C17         C457   1.422       .  S
O19         Cr37   2.019       .  S
O19          C27   1.270       .  A
O20         Cr37   1.966       .  S
O20          C21   1.260       .  A
C21          O22   1.267       .  A
C21         C430   1.482       .  S
O22         Cr38   2.015       .  S
O23         Cr38   1.993       .  S
O23          C24   1.264       .  A
C24         C449   1.471       .  S
C24          O25   1.259       .  A
O25         Cr39   1.986       .  S
O26         Cr39   1.973       .  S
O26          C27   1.260       .  A
C27         C440   1.484       .  S
O28         Cr37   1.983       .  S
O28         C522   1.257   1_545  A
O29         Cr37   2.009       .  S
O29          C30   1.265       .  A
C30         C480   1.483       .  S
C30          O31   1.261       .  A
O31         Cr38   1.984       .  S
O32         Cr38   2.006       .  S
O32          C33   1.265       .  A
C33         C461   1.433   1_545  S
C33          O34   1.262   1_545  A
O34         Cr39   1.979   1_565  S
O35        Cr525   1.963       .  S
O35          C36   1.259       .  A
C36         C454   1.486       .  S
C36         O514   1.266       .  A
Cr37         O40   1.775       .  S
Cr38         O40   1.775       .  S
Cr39        O521   1.996   1_545  S
Cr39         O40   1.771       .  S
O41         Cr59   1.945       .  S
O41          C49   1.254       .  A
O42         Cr59   2.034       .  S
O42          C43   1.273       .  A
C43          O44   1.262       .  A
C43         C412   1.485       .  S
O44         Cr60   1.966       .  S
O45         Cr60   2.008       .  S
O45          C46   1.263       .  A
C46         C421   1.484       .  S
C46          O47   1.262       .  A
O47         Cr61   1.988       .  S
O48         Cr61   2.023       .  S
O48          C49   1.269       .  A
C49         C433   1.483       .  S
O50         Cr59   2.030       .  S
O50          C58   1.270       .  A
O51         Cr59   1.961       .  S
O51          C52   1.252       .  A
C52         C426   1.471       .  S
C52          O53   1.264       .  A
O53         Cr60   2.013       .  S
O54         Cr60   1.962       .  S
O54          C55   1.259       .  A
C55         C458   1.422       .  S
C55          O56   1.265       .  A
O56         Cr61   2.006       .  S
O57         Cr61   1.979       .  S
O57          C58   1.257       .  A
C58         C464   1.496       .  S
Cr59         O62   1.781       .  S
Cr60         O62   1.777       .  S
Cr61         O62   1.785       .  S
O63         Cr81   1.986       .  S
O63          C71   1.264       .  A
O64         Cr81   2.008       .  S
O64          C65   1.266       .  A
C65          O66   1.261       .  A
C65         C443   1.483       .  S
O66         Cr82   1.979       .  S
O67         Cr82   1.994       .  S
O67          C68   1.265       .  A
C68         C407   1.483       .  S
C68          O69   1.261       .  A
O69         Cr83   1.990       .  S
O70         Cr83   2.012       .  S
O70          C71   1.270       .  A
C71         C415   1.487       .  S
O72         Cr81   2.002       .  S
O72          C80   1.261       .  A
O73         Cr81   1.990       .  S
O73         C560   1.264   1_545  A
C74         C467   1.496       .  S
C74          O75   1.263       .  A
C74         O559   1.264       .  A
O75        Cr568   2.012       .  S
O76        Cr568   1.956       .  S
O76         C563   1.258       .  A
C77         C945   1.427       .  S
C77          O78   1.264       .  A
C77         O562   1.257   1_545  A
O78         Cr83   2.006       .  S
O79         Cr83   1.990       .  S
O79          C80   1.260       .  A
C80         C475   1.481       .  S
Cr81         O84   1.774       .  S
Cr82        O561   2.010   1_545  S
Cr82        O562   1.966   1_545  S
Cr82         O84   1.774       .  S
Cr83         O84   1.776       .  S
C85          N86   1.369       .  A
C85          N90   1.359       .  A
C85         C403   1.479       .  S
N86          C87   1.366       .  A
C87          N88   1.354       .  A
C87         C453   1.474       .  S
N88          C89   1.348       .  A
C89          N90   1.356       .  A
C89         C425   1.470       .  S
C91          N92   1.360       .  A
C91          N96   1.361       .  A
C91         C399   1.479       .  S
N92          C93   1.361       .  A
C93          N94   1.360       .  A
C93         C395   1.486       .  S
N94          C95   1.363       .  A
C95          N96   1.357       .  A
C95         C392   1.487       .  S
C97          N98   1.359       .  A
C97         N102   1.359       .  A
C97         C388   1.480       .  S
N98          C99   1.355       .  A
C99         N100   1.363       .  A
C99         C380   1.483       .  S
N100        C101   1.364       .  A
C101        N102   1.361       .  A
C101        C383   1.484       .  S
C103        N104   1.353       .  A
C103        N108   1.356       .  A
C103        C377   1.427       .  S
N104        C105   1.353       .  A
C105        N106   1.355       .  A
C105        C373   1.424       .  S
N106        C107   1.355       .  A
C107        N108   1.356       .  A
C107        C375   1.428       .  S
O109      Cr1099   1.974       .  S
O109        C117   1.259       .  A
O110       Cr127   2.004       .  S
O110        C111   1.266       .  A
C111        O112   1.258       .  A
C111        C364   1.475       .  S
O112       Cr128   1.970       .  S
O113       Cr128   2.019       .  S
O113        C114   1.270       .  A
C114        C472   1.487       .  S
C114        O115   1.263       .  A
O115       Cr129   1.985       .  S
O116      Cr1101   2.016       .  S
O116        C117   1.268       .  A
C117        C354   1.484       .  S
O118       Cr127   2.010       .  S
O118        C126   1.264       .  A
O119       Cr127   1.972       .  S
O119        C120   1.258       .  A
C120        C396   1.482       .  S
C120        O121   1.269       .  A
O121       Cr128   2.023       .  S
O122       Cr128   1.965       .  S
O122        C123   1.255       .  A
C123        C378   1.427       .  S
C123        O124   1.262       .  A
O124       Cr129   2.005       .  S
O125       Cr129   1.990       .  S
O125        C126   1.262       .  A
C126        C384   1.487       .  S
Cr127      O1081   1.974   1_455  S
Cr127       O130   1.780       .  S
Cr128       O130   1.777       .  S
Cr129      O1088   2.020   1_455  S
Cr129       O130   1.777       .  S
O131       Cr149   1.977       .  S
O131        C139   1.260       .  A
O132      Cr1121   2.010       .  S
O132        C133   1.267       .  A
C133        O134   1.260       .  A
C133        C340   1.474       .  S
O134      Cr1122   1.968       .  S
O135       Cr150   1.991       .  S
O135        C136   1.262       .  A
C136        C484   1.468       .  S
C136        O137   1.261       .  A
O137       Cr151   1.985       .  S
O138       Cr151   2.006       .  S
O138        C139   1.266       .  A
C139        C367   1.482       .  S
O140       Cr149   2.033       .  S
O140        C148   1.272       .  A
O141       Cr149   1.991       .  S
O141        C142   1.260       .  A
C142        C379   1.478       .  S
C142        O143   1.260       .  A
O143       Cr150   1.996       .  S
O144       Cr150   1.967       .  S
O144        C145   1.257       .  A
C145        C374   1.424       .  S
C145        O146   1.262       .  A
O146       Cr151   2.003       .  S
O147       Cr151   1.978       .  S
O147        C148   1.258       .  A
C148        C350   1.493       .  S
Cr149      O1104   2.039   1_455  S
Cr149       O152   1.781       .  S
Cr150      O1106   1.960   1_455  S
Cr150       O152   1.773       .  S
Cr151       O152   1.782       .  S
O153       Cr171   1.997       .  S
O153        C161   1.264       .  A
O154       Cr171   2.025       .  S
O154        C155   1.273       .  A
C155        O156   1.263       .  A
C155        C357   1.485       .  S
O156       Cr172   1.973       .  S
O157       Cr172   2.018       .  S
O157        C158   1.267       .  A
C158        C404   1.483       .  S
C158        O159   1.256       .  A
O159       Cr173   1.974       .  S
O160       Cr173   2.013       .  S
O160        C161   1.267       .  A
C161        C343   1.499       .  S
O162       Cr171   2.033       .  S
O162        C170   1.271       .  A
O163       Cr171   2.007       .  S
O163        C164   1.264       .  A
C164        C336   1.495       .  S
C164        O165   1.264       .  A
O165       Cr172   2.011       .  S
O166       Cr172   1.969       .  S
O166        C167   1.258       .  A
C167        C376   1.428       .  S
C167        O168   1.264       .  A
O168       Cr173   2.009       .  S
O169       Cr173   1.957       .  S
O169        C170   1.254       .  A
C170        C391   1.480       .  S
Cr171       O174   1.780       .  S
Cr172       O174   1.778       .  S
Cr173       O174   1.779       .  S
C175        N176   1.361       .  A
C175        N180   1.356       .  A
C175        C331   1.484       .  S
N176        C177   1.362       .  A
C177        N178   1.370       .  A
C177        C335   1.493       .  S
N178        C179   1.370       .  A
C179        N180   1.358       .  A
C179        C349   1.493       .  S
C181        N182   1.355       .  A
C181        N186   1.365       .  A
C181        C450   1.476       .  S
N182        C183   1.356   1_556  A
C183        N184   1.354       .  A
C183        C327   1.472       .  S
N184        C185   1.359       .  A
C185        N186   1.361   1_554  A
C185        C809   1.485       .  S
C187        N188   1.366       .  A
C187        N192   1.369       .  A
C187        C422   1.488       .  S
N188        C189   1.362   1_556  A
C189        N190   1.345       .  A
C189        C320   1.467       .  S
N190        C191   1.346       .  A
C191        N192   1.363   1_554  A
C191        C315   1.468       .  S
C193        N194   1.357       .  A
C193        N198   1.353       .  A
C193        C310   1.427       .  S
N194        C195   1.357       .  A
C195        N196   1.352       .  A
C195        C311   1.423       .  S
N196        C197   1.351       .  A
C197        N198   1.353       .  A
C197        C313   1.420       .  S
O199       Cr217   1.969       .  S
O199        C207   1.259       .  A
O200       Cr217   1.994       .  S
O200        C201   1.262       .  A
C201        O202   1.258       .  A
C201        C290   1.470       .  S
O202      Cr1190   1.966   1_455  S
O203       Cr218   1.997       .  S
O203       C1176   1.265       .  A
C204       C1359   1.476       .  S
C204       O1175   1.267   1_455  A
C204       O1177   1.264       .  A
O205       Cr219   1.984       .  S
O205       C1176   1.264       .  A
O206      Cr1191   1.995   1_455  S
O206        C207   1.265       .  A
C207        C300   1.469       .  S
O208      Cr1189   2.001       .  S
O208        C216   1.261       .  A
O209      Cr1189   1.957       .  S
O209        C210   1.254       .  A
C210        C328   1.465       .  S
C210        O211   1.267       .  A
O211       Cr218   2.008       .  S
O212       Cr218   1.969       .  S
O212        C213   1.256       .  A
C213        C314   1.420       .  S
C213        O214   1.258       .  A
O214       Cr219   1.991       .  S
O215       Cr219   1.974       .  S
O215        C216   1.264       .  A
C216        C319   1.474       .  S
Cr217      O1180   2.001   1_455  S
Cr217      O1181   1.964   1_455  S
Cr217      O1192   1.782   1_455  S
Cr218      O1174   1.964       .  S
Cr218       O220   1.769       .  S
Cr219      O1178   1.991       .  S
Cr219       O220   1.771       .  S
O220      Cr1189   1.778       .  S
O221       Cr239   1.965       .  S
O221        C229   1.256       .  A
O222       Cr239   2.009       .  S
O222        C223   1.268       .  A
C223        O224   1.257       .  A
C223        C303   1.466       .  S
O224       Cr240   1.950       .  S
O225       Cr240   2.016       .  S
O225        C226   1.266       .  A
C226        C400   1.477       .  S
C226        O227   1.258       .  A
O227       Cr241   1.975       .  S
O228       Cr241   2.019       .  S
O228        C229   1.267       .  A
C229        C276   1.484       .  S
O230       Cr239   2.019       .  S
O230        C238   1.268       .  A
O231       Cr239   1.973       .  S
O231        C232   1.257       .  A
C232        C286   1.478       .  S
C232        O233   1.267       .  A
O233       Cr240   2.016       .  S
O234       Cr240   1.953       .  S
O234        C721   1.255       .  A
C235        C312   1.424       .  S
C235        O720   1.255   1_545  A
C235        O722   1.266   1_545  A
O236       Cr241   2.016       .  S
O236        C721   1.267       .  A
O237       Cr241   1.967       .  S
O237        C238   1.258       .  A
C238        C324   1.477       .  S
Cr239       O242   1.775       .  S
Cr240       O242   1.775       .  S
Cr241       O242   1.773       .  S
O243       Cr261   1.997       .  S
O243        C251   1.263       .  A
O244       Cr261   1.976       .  S
O244        C245   1.261       .  A
C245        O246   1.267       .  A
C245        C279   1.484       .  S
O246       Cr262   2.012       .  S
O247       Cr262   1.979       .  S
O247        C248   1.261       .  A
C248        C332   1.484       .  S
C248        O249   1.270       .  A
O249       Cr263   2.021       .  S
O250       Cr263   1.962       .  S
O250        C251   1.257       .  A
C251        C293   1.469       .  S
O252       Cr261   1.974       .  S
O252        C260   1.259       .  A
O253       Cr261   2.005       .  S
O253        C254   1.262       .  A
C254        C316   1.478       .  S
C254        O255   1.263       .  A
O255       Cr262   1.971       .  S
O256       Cr262   2.010       .  S
O256        C257   1.263       .  A
C257        C309   1.426       .  S
C257        O258   1.254       .  A
O258       Cr263   1.961       .  S
O259       Cr263   2.021       .  S
O259        C260   1.270       .  A
C260        C271   1.481       .  S
Cr261       O264   1.777       .  S
Cr262       O264   1.772       .  S
Cr263       O264   1.771       .  S
C265        N266   1.354       .  A
C265        N270   1.364       .  A
C265        C408   1.474       .  S
N266        C267   1.351   1_556  A
C267        N268   1.359       .  A
C267        C771   1.473       .  S
N268        C269   1.361       .  A
C269        N270   1.367   1_554  A
C269        C272   1.481       .  S
C271        C272   1.344       .  D
C271        H273   1.087       .  S
C272        H274   1.087       .  S
C275        C276   1.405       .  A
C275        C280   1.402       .  A
C275        H281   1.083       .  S
C276        C277   1.407       .  A
C277        C278   1.396       .  A
C277        H282   1.083       .  S
C278        C279   1.404       .  A
C278        H283   1.083       .  S
C279        C280   1.408       .  A
C280        H284   1.083       .  S
C285        C753   1.480       .  S
C285        C286   1.345       .  D
C285        H287   1.087       .  S
C286        H288   1.086       .  S
C289        C290   1.405       .  A
C289        C294   1.393       .  A
C289        H295   1.083       .  S
C290        C291   1.404       .  A
C291        C292   1.393       .  A
C291        H296   1.083       .  S
C292        C293   1.404       .  A
C292        H297   1.083       .  S
C293        C294   1.403       .  A
C294        H298   1.083       .  S
C299        C300   1.403       .  A
C299        C304   1.389       .  A
C299        H305   1.083       .  S
C300        C301   1.405       .  A
C301        C302   1.398       .  A
C301        H306   1.083       .  S
C302        C303   1.404       .  A
C302        H307   1.083       .  S
C303        C304   1.402       .  A
C304        H308   1.083       .  S
C309        C310   1.201       .  T
C311        C312   1.199       .  T
C313        C314   1.197       .  T
C315        C316   1.337       .  D
C315        H317   1.088       .  S
C316        H318   1.086       .  S
C319        C320   1.335       .  D
C319        H321   1.086       .  S
C320        H322   1.087       .  S
C323        C671   1.484       .  S
C323        C324   1.346       .  D
C323        H325   1.086       .  S
C324        H326   1.087       .  S
C327        C328   1.340       .  D
C327        H329   1.087       .  S
C328        H330   1.087       .  S
C331        C332   1.346       .  D
C331        H333   1.087       .  S
C332        H334   1.086       .  S
C335        C336   1.347       .  D
C335        H337   1.086       .  S
C336        H338   1.087       .  S
C339        C344   1.406       .  A
C339        C826   1.409       .  A
C339        H345   1.083       .  S
C340        C341   1.404       .  A
C340        C825   1.405       .  A
C341        C828   1.396   1_545  A
C341        H346   1.083       .  S
C342        C343   1.409       .  A
C342        C827   1.405       .  A
C342        H347   1.083       .  S
C343        C344   1.408       .  A
C344        H348   1.083       .  S
C349        C350   1.345       .  D
C349        H351   1.087       .  S
C350        H352   1.086       .  S
C353        C354   1.407       .  A
C353        C358   1.402       .  A
C353        H359   1.083       .  S
C354        C355   1.405       .  A
C355        C356   1.401       .  A
C355        H360   1.083       .  S
C356        C357   1.407       .  A
C356        H361   1.083       .  S
C357        C358   1.405       .  A
C358        H362   1.083       .  S
C363        C364   1.406       .  A
C363        C854   1.401       .  A
C363        H369   1.083       .  S
C364        C365   1.402       .  A
C365        C366   1.394       .  A
C365        H370   1.083       .  S
C366        C853   1.406       .  A
C366        H371   1.083       .  S
C367        C368   1.406       .  A
C367        C852   1.405       .  A
C368        C849   1.400   1_545  A
C368        H372   1.083       .  S
C373        C374   1.199       .  T
C375        C376   1.202       .  T
C377        C378   1.201       .  T
C379       C1352   1.342       .  D
C379        H381   1.087       .  S
C380       C1351   1.344       .  D
C380        H382   1.087       .  S
C383       C1356   1.352       .  D
C383        H385   1.087       .  S
C384       C1355   1.347       .  D
C384        H386   1.086       .  S
C387       C1176   1.469       .  S
C387        C388   1.343       .  D
C387       H1361   1.087       .  S
C388        H390   1.087       .  S
H389       C1359   1.086       .  S
C391        C392   1.342       .  D
C391        H393   1.087       .  S
C392        H394   1.086       .  S
C395        C396   1.346       .  D
C395        H397   1.087       .  S
C396        H398   1.087       .  S
C399        C400   1.346       .  D
C399        H401   1.087       .  S
C400        H402   1.087       .  S
C403        C404   1.343       .  D
C403        H405   1.087       .  S
C404        H406   1.086       .  S
C407        C408   1.344       .  D
C407        H409   1.086       .  S
C408        H410   1.088       .  S
C411        C412   1.405       .  A
C411        C416   1.397       .  A
C411        H417   1.083       .  S
C412        C413   1.407       .  A
C413        C414   1.407       .  A
C413        H418   1.083       .  S
C414        C415   1.409       .  A
C414        H419   1.083       .  S
C415        C416   1.405       .  A
C416        H420   1.083       .  S
C421        C422   1.347       .  D
C421        H423   1.086       .  S
C422        H424   1.087       .  S
C425        C426   1.338       .  D
C425        H427   1.087       .  S
C426        H428   1.087       .  S
C429        C430   1.409       .  A
C429        C434   1.406       .  A
C429        H435   1.083       .  S
C430        C431   1.402       .  A
C431        C432   1.389       .  A
C431        H436   1.083       .  S
C432        C433   1.407       .  A
C432        H437   1.083       .  S
C433        C434   1.406       .  A
C434        H438   1.083       .  S
C439        C440   1.405       .  A
C439        C444   1.399       .  A
C439        H931   1.083       .  S
C440        C441   1.408       .  A
C441        C442   1.400       .  A
C441        H446   1.083       .  S
C442        C443   1.405       .  A
C442        H447   1.083       .  S
C443        C444   1.407       .  A
C444        H934   1.083       .  S
H445        C925   1.083       .  S
H448        C930   1.083       .  S
C449        C450   1.337       .  D
C449        H451   1.087       .  S
C450        H452   1.087       .  S
C453        C454   1.344       .  D
C453        H455   1.088       .  S
C454        H456   1.086       .  S
C457        C458   1.198       .  T
C459        C563   1.423       .  S
C459        C460   1.199       .  T
C461        C948   1.205       .  T
C462        C947   1.201       .  T
C463        C981   1.498       .  S
C463        C464   1.348       .  D
C463       H1437   1.086       .  S
C464        H466   1.087       .  S
H465       C1435   1.087       .  S
C467        C468   1.346       .  D
C467        H469   1.087       .  S
C468        H470   1.087       .  S
C471        C472   1.348       .  D
C471        H473   1.087       .  S
C472        H474   1.086   1_455  S
C475        C476   1.346       .  D
C475        H477   1.086       .  S
C476        H478   1.087       .  S
C479        C977   1.483       .  S
C479        C480   1.347       .  D
C479       H1453   1.087       .  S
C480        H482   1.086       .  S
H481       C1451   1.087       .  S
C483        C484   1.345       .  D
C483        H485   1.087       .  S
C484        H486   1.087   1_455  S
C487        N488   1.367       .  A
C487        N492   1.359       .  A
C487        C969   1.485       .  S
N488        C489   1.363       .  A
C489        N490   1.361       .  A
C489        C962   1.493       .  S
N490        C491   1.358       .  A
C491        N492   1.359       .  A
C491       C1937   1.481   1_455  S
C493        N494   1.358       .  A
C493        N498   1.350       .  A
C493        C957   1.469       .  S
N494        C495   1.360       .  A
C495        N496   1.372       .  A
C495       C1921   1.491   1_455  S
N496        C497   1.368       .  A
C497        N498   1.352       .  A
C497        C954   1.476       .  S
C499        N500   1.358       .  A
C499        N504   1.355       .  A
C499        C948   1.434       .  S
N500       C1473   1.358       .  A
C501       N1472   1.354   1_455  A
C501       N1474   1.356   1_455  A
C501        C946   1.427       .  S
N502       C1473   1.353       .  A
N502        C503   1.353       .  A
C503        N504   1.356       .  A
C503        C943   1.424       .  S
O505       Cr523   1.967       .  S
O505        C513   1.259       .  A
O506       Cr523   2.019       .  S
O506        C507   1.270       .  A
C507        O508   1.258       .  A
C507        C916   1.478       .  S
O508       Cr524   1.961       .  S
O509       Cr524   2.010       .  S
O509        C510   1.267       .  A
C510        C935   1.478       .  S
C510        O511   1.258       .  A
O511       Cr525   1.975       .  S
O512       Cr525   2.007       .  S
O512        C513   1.267       .  A
C513        C926   1.474       .  S
O514       Cr523   2.021       .  S
O515       Cr523   1.971       .  S
O515        C516   1.256       .  A
C516        C966   1.472       .  S
C516        O517   1.267       .  A
O517       Cr524   2.006       .  S
O518       Cr524   1.962       .  S
O518        C519   1.255       .  A
C519        C947   1.427       .  S
C519        O520   1.265       .  A
O520       Cr525   2.012       .  S
O521        C522   1.262       .  A
C522        C940   1.476       .  S
Cr523       O526   1.779       .  S
Cr524       O526   1.769       .  S
Cr525       O526   1.771       .  S
O527       Cr545   1.950       .  S
O527        C535   1.254       .  A
O528       Cr545   2.055       .  S
O528        C529   1.278       .  A
C529        O530   1.262       .  A
C529        C898   1.497       .  S
O530       Cr546   1.965       .  S
O531       Cr546   2.009       .  S
O531        C532   1.268       .  A
C532        C907   1.486       .  S
C532        O533   1.255       .  A
O533       Cr547   1.978       .  S
O534       Cr547   2.013       .  S
O534        C535   1.267       .  A
C535        C919   1.472       .  S
O536       Cr545   2.046       .  S
O536        C544   1.275       .  A
O537       Cr545   1.953       .  S
O537        C538   1.251       .  A
C538        C912   1.464       .  S
C538        O539   1.264       .  A
O539       Cr546   2.013       .  S
O540       Cr546   1.957       .  S
O540        C541   1.256       .  A
C541        C944   1.424       .  S
C541        O542   1.266       .  A
O542       Cr547   2.016       .  S
O543       Cr547   1.963       .  S
O543        C544   1.254       .  A
C544        C950   1.494       .  S
Cr545       O548   1.779       .  S
Cr546       O548   1.773       .  S
Cr547       O548   1.783       .  S
O549       Cr567   1.996       .  S
O549        C557   1.264       .  A
O550       Cr567   2.012       .  S
O550        C551   1.270       .  A
C551        O552   1.263       .  A
C551        C929   1.474       .  S
O552       Cr568   1.968       .  S
O553       Cr568   2.016       .  S
O553        C554   1.264       .  A
C554        C893   1.495       .  S
C554        O555   1.258       .  A
O555       Cr569   1.989       .  S
O556       Cr569   2.013       .  S
O556        C557   1.269       .  A
C557        C901   1.500       .  S
O558       Cr567   2.020       .  S
O558        C566   1.266       .  A
O559       Cr567   2.006       .  S
C560        C953   1.486       .  S
C560        O561   1.264       .  A
C563        O564   1.267       .  A
O564       Cr569   2.013       .  S
O565       Cr569   1.973       .  S
O565        C566   1.257       .  A
C566        C961   1.486       .  S
Cr567       O570   1.788       .  S
Cr568       O570   1.782       .  S
Cr569       O570   1.783       .  S
C571        N572   1.363       .  A
C571        N576   1.352       .  A
C571        C889   1.472       .  S
N572        C573   1.363       .  A
C573        N574   1.359       .  A
C573        C939   1.471       .  S
N574        C575   1.354       .  A
C575        N576   1.355       .  A
C575        C911   1.475       .  S
C577        N578   1.356       .  A
C577        N582   1.356       .  A
C577        C885   1.466       .  S
N578        C579   1.358       .  A
C579        N580   1.360       .  A
C579        C881   1.482       .  S
N580        C581   1.364       .  A
C581        N582   1.353       .  A
C581        C878   1.476       .  S
C583        N584   1.372       .  A
C583        N588   1.360       .  A
C583        C874   1.497       .  S
N584        C585   1.369       .  A
C585        N586   1.362       .  A
C585        C866   1.505       .  S
N586        C587   1.359       .  A
C587        N588   1.359       .  A
C587        C869   1.485       .  S
C589        N590   1.358       .  A
C589        N594   1.359       .  A
C589        C863   1.436       .  S
N590        C591   1.357       .  A
C591        N592   1.352       .  A
C591        C859   1.429       .  S
N592        C593   1.353       .  A
C593        N594   1.358       .  A
C593        C861   1.429       .  S
O595      Cr1585   1.975       .  S
O595        C603   1.259       .  A
O596       Cr613   2.008       .  S
O596        C597   1.267       .  A
C597        O598   1.261       .  A
C597        C850   1.484       .  S
O598       Cr614   1.979       .  S
O599       Cr614   2.011       .  S
O599        C600   1.269       .  A
C600        C958   1.472       .  S
C600        O601   1.257       .  A
O601       Cr615   1.966       .  S
O602      Cr1587   2.012       .  S
O602        C603   1.267       .  A
C603        C840   1.483       .  S
O604       Cr613   2.010       .  S
O604        C612   1.264       .  A
O605       Cr613   1.970       .  S
O605        C606   1.258       .  A
C606        C882   1.475       .  S
C606        O607   1.267       .  A
O607       Cr614   2.013       .  S
O608       Cr614   1.972       .  S
O608        C609   1.256       .  A
C609        C864   1.435       .  S
C609        O610   1.264       .  A
O610       Cr615   2.014       .  S
O611       Cr615   1.959       .  S
O611        C612   1.257       .  A
C612        C870   1.472       .  S
Cr613      O1567   1.975   1_455  S
Cr613       O616   1.778       .  S
Cr614       O616   1.773       .  S
Cr615      O1574   2.012   1_455  S
Cr615       O616   1.775       .  S
O617       Cr635   1.959       .  S
O617        C625   1.258       .  A
O618      Cr1607   1.991       .  S
O618        C619   1.264       .  A
C619        O620   1.269       .  A
C619        C826   1.499       .  S
O620      Cr1608   2.017       .  S
O621       Cr636   2.037       .  S
O621        C622   1.272       .  A
C622        C970   1.483       .  S
C622        O623   1.257       .  A
O623       Cr637   1.966       .  S
O624       Cr637   2.020       .  S
O624        C625   1.269       .  A
C625        C853   1.477       .  S
O626       Cr635   2.010       .  S
O626        C634   1.264       .  A
O627       Cr635   1.968       .  S
O627        C628   1.256       .  A
C628        C865   1.483       .  S
C628        O629   1.272       .  A
O629       Cr636   2.028       .  S
O630       Cr636   1.959       .  S
O630        C631   1.254       .  A
C631        C860   1.428       .  S
C631        O632   1.266       .  A
O632       Cr637   2.017       .  S
O633       Cr637   1.961       .  S
O633        C634   1.256       .  A
C634        C836   1.472       .  S
Cr635      O1590   2.008   1_455  S
Cr635       O638   1.774       .  S
Cr636      O1592   1.968   1_455  S
Cr636       O638   1.770       .  S
Cr637       O638   1.771       .  S
O639       Cr657   1.972       .  S
O639        C647   1.259       .  A
O640       Cr657   2.014       .  S
O640        C641   1.270       .  A
C641        O642   1.265       .  A
C641        C843   1.481       .  S
O642       Cr658   1.980       .  S
O643       Cr658   2.015       .  S
O643        C644   1.268       .  A
C644        C890   1.476       .  S
C644        O645   1.255       .  A
O645       Cr659   1.968       .  S
O646       Cr659   1.997       .  S
O646        C647   1.263       .  A
C647        C829   1.474       .  S
O648       Cr657   2.020       .  S
O648        C656   1.269       .  A
O649       Cr657   1.987       .  S
O649        C650   1.260       .  A
C650        C822   1.479       .  S
C650        O651   1.264       .  A
O651       Cr658   2.006       .  S
O652       Cr658   1.974       .  S
O652        C653   1.259       .  A
C653        C862   1.428       .  S
C653        O654   1.262       .  A
O654       Cr659   2.003       .  S
O655       Cr659   1.955       .  S
O655        C656   1.253       .  A
C656        C877   1.472       .  S
Cr657       O660   1.777       .  S
Cr658       O660   1.772       .  S
Cr659       O660   1.779       .  S
C661        N662   1.366       .  A
C661        N666   1.355       .  A
C661        C817   1.478       .  S
N662        C663   1.363       .  A
C663        N664   1.358       .  A
C663        C821   1.485       .  S
N664        C665   1.355       .  A
C665        N666   1.356       .  A
C665        C835   1.470       .  S
C667        N668   1.357       .  A
C667        N672   1.362       .  A
C667        C936   1.475       .  S
N668        C669   1.357   1_556  A
C669        N670   1.357       .  A
C669        C813   1.477       .  S
N670        C671   1.361       .  A
C671        N672   1.361   1_554  A
C673        N674   1.370       .  A
C673        N678   1.351       .  A
C673        C908   1.473       .  S
N674        C675   1.372   1_556  A
C675        N676   1.365       .  A
C675        C806   1.496       .  S
N676        C677   1.361       .  A
C677        N678   1.345   1_554  A
C677        C801   1.479       .  S
C679        N680   1.358       .  A
C679        N684   1.359       .  A
C679        C796   1.435       .  S
N680        C681   1.356       .  A
C681        N682   1.349       .  A
C681        C797   1.421       .  S
N682        C683   1.348       .  A
C683        N684   1.358       .  A
C683        C799   1.426       .  S
O685       Cr703   1.956       .  S
O685        C693   1.253       .  A
O686       Cr703   2.042       .  S
O686        C687   1.277       .  A
C687        O688   1.264       .  A
C687        C776   1.496       .  S
O688      Cr1676   1.966   1_455  S
O689       Cr704   1.996       .  S
O689       C1662   1.262       .  A
C690       C1845   1.480       .  S
C690       O1661   1.260   1_455  A
C690       O1663   1.264       .  A
O691       Cr705   2.014       .  S
O691       C1662   1.270       .  A
O692      Cr1677   2.002   1_455  S
O692        C693   1.264       .  A
C693        C786   1.474       .  S
O694      Cr1675   2.016       .  S
O694        C702   1.266       .  A
O695      Cr1675   1.973       .  S
O695        C696   1.254       .  A
C696        C814   1.474       .  S
C696        O697   1.262       .  A
O697       Cr704   2.002       .  S
O698       Cr704   1.986       .  S
O698        C699   1.262       .  A
C699        C800   1.425       .  S
C699        O700   1.258       .  A
O700       Cr705   1.982       .  S
O701       Cr705   2.001       .  S
O701        C702   1.264       .  A
C702        C805   1.498       .  S
Cr703      O1666   2.030   1_455  S
Cr703      O1667   1.966   1_455  S
Cr703      O1678   1.782   1_455  S
Cr704      O1660   1.984       .  S
Cr704       O706   1.779       .  S
Cr705      O1664   2.003       .  S
Cr705       O706   1.785       .  S
O706      Cr1675   1.787       .  S
O707       Cr725   1.978       .  S
O707        C715   1.261       .  A
O708       Cr725   2.024       .  S
O708        C709   1.272       .  A
C709        O710   1.256       .  A
C709        C789   1.474       .  S
O710       Cr726   1.948       .  S
O711       Cr726   1.991       .  S
O711        C712   1.263       .  A
C712        C886   1.467       .  S
C712        O713   1.257       .  A
O713       Cr727   1.977       .  S
O714       Cr727   2.009       .  S
O714        C715   1.265       .  A
C715        C762   1.486       .  S
O716       Cr725   2.022       .  S
O716        C724   1.269       .  A
O717       Cr725   1.982       .  S
O717        C718   1.259       .  A
C718        C772   1.475   1_565  S
C718        O719   1.260       .  A
O719       Cr726   1.997       .  S
O720       Cr726   1.956       .  S
C721        C798   1.422       .  S
O722       Cr727   2.015       .  S
O723       Cr727   1.962       .  S
O723        C724   1.257       .  A
C724        C810   1.475   1_565  S
Cr725       O728   1.773       .  S
Cr726       O728   1.772       .  S
Cr727       O728   1.773       .  S
O729       Cr747   2.041       .  S
O729        C737   1.275       .  A
O730       Cr747   1.963       .  S
O730        C731   1.255       .  A
C731        O732   1.266       .  A
C731        C765   1.486       .  S
O732       Cr748   2.019       .  S
O733       Cr748   1.958       .  S
O733        C734   1.253       .  A
C734        C818   1.476       .  S
C734        O735   1.273       .  A
O735       Cr749   2.038       .  S
O736       Cr749   1.965       .  S
O736        C737   1.262       .  A
C737        C779   1.495       .  S
O738       Cr747   1.970       .  S
O738        C746   1.255       .  A
O739       Cr747   2.039       .  S
O739        C740   1.276       .  A
C740        C802   1.476       .  S
C740        O741   1.251       .  A
O741       Cr748   1.943       .  S
O742       Cr748   2.020       .  S
O742        C743   1.266       .  A
C743        C795   1.434       .  S
C743        O744   1.257       .  A
O744       Cr749   1.969       .  S
O745       Cr749   2.033       .  S
O745        C746   1.270       .  A
C746        C757   1.490       .  S
Cr747       O750   1.773       .  S
Cr748       O750   1.779       .  S
Cr749       O750   1.773       .  S
C751        N752   1.360       .  A
C751        N756   1.371       .  A
C751        C894   1.489       .  S
N752        C753   1.357   1_556  A
C753        N754   1.354       .  A
N754        C755   1.358       .  A
C755        N756   1.371   1_554  A
C755        C758   1.487       .  S
C757        C758   1.342       .  D
C757        H759   1.087       .  S
C758        H760   1.087       .  S
C761        C762   1.409       .  A
C761        C766   1.404       .  A
C761        H767   1.083       .  S
C762        C763   1.404       .  A
C763        C764   1.396       .  A
C763        H768   1.083       .  S
C764        C765   1.407       .  A
C764        H769   1.083       .  S
C765        C766   1.406       .  A
C766        H770   1.083       .  S
C771        C772   1.339       .  D
C771        H773   1.087       .  S
C772        H774   1.087       .  S
C775        C776   1.410       .  A
C775        C780   1.412       .  A
C775        H781   1.083       .  S
C776        C777   1.407       .  A
C777        C778   1.395       .  A
C777        H782   1.083       .  S
C778        C779   1.407       .  A
C778        H783   1.083       .  S
C779        C780   1.410       .  A
C780        H784   1.083       .  S
C785        C786   1.401       .  A
C785        C790   1.394       .  A
C785        H791   1.083       .  S
C786        C787   1.408       .  A
C787        C788   1.397       .  A
C787        H792   1.083       .  S
C788        C789   1.402       .  A
C788        H793   1.083       .  S
C789        C790   1.408       .  A
C790        H794   1.083       .  S
C795        C796   1.205       .  T
C797        C798   1.198       .  T
C799        C800   1.200       .  T
C801        C802   1.334       .  D
C801        H803   1.087       .  S
C802        H804   1.087       .  S
C805        C806   1.351       .  D
C805        H807   1.086       .  S
C806        H808   1.087       .  S
C809        C810   1.346       .  D
C809        H811   1.086   1_545  S
C810        H812   1.087       .  S
C813        C814   1.345       .  D
C813        H815   1.087       .  S
C814        H816   1.086   1_554  S
C817        C818   1.338       .  D
C817        H819   1.087       .  S
C818        H820   1.087       .  S
C821        C822   1.348       .  D
C821        H823   1.086       .  S
C822        H824   1.087       .  S
C825        C830   1.397   1_545  A
C825        H831   1.083       .  S
C826        C827   1.408       .  A
C827        H832   1.083       .  S
C828        C829   1.405       .  A
C828        H833   1.083       .  S
C829        C830   1.404       .  A
C830        H834   1.083       .  S
C835        C836   1.345       .  D
C835        H837   1.087       .  S
C836        H838   1.086       .  S
C839        C840   1.406       .  A
C839        C844   1.400       .  A
C839        H845   1.083       .  S
C840        C841   1.406       .  A
C841        C842   1.401       .  A
C841        H846   1.083       .  S
C842        C843   1.405       .  A
C842        H847   1.083       .  S
C843        C844   1.405       .  A
C844        H848   1.083       .  S
C849        C850   1.406       .  A
C849        H855   1.083       .  S
C850        C851   1.407       .  A
C851        C852   1.400   1_565  A
C851        H856   1.083       .  S
C852        H857   1.083       .  S
C853        C854   1.404       .  A
C854        H858   1.083       .  S
C859        C860   1.202       .  T
C861        C862   1.202       .  T
C863        C864   1.206       .  T
C865       C1838   1.340       .  D
C865        H867   1.086       .  S
C866       C1837   1.356       .  D
C866        H868   1.086       .  S
C869       C1842   1.350       .  D
C869        H871   1.087       .  S
C870       C1841   1.343       .  D
C870        H872   1.086       .  S
C873       C1662   1.491       .  S
C873        C874   1.345       .  D
C873       H1847   1.087       .  S
C874        H876   1.087       .  S
H875       C1845   1.087       .  S
C877        C878   1.338       .  D
C877        H879   1.087       .  S
C878        H880   1.087       .  S
C881        C882   1.346       .  D
C881        H883   1.087       .  S
C882        H884   1.086       .  S
C885        C886   1.343       .  D
C885        H887   1.087       .  S
C886        H888   1.087       .  S
C889        C890   1.339       .  D
C889        H891   1.087       .  S
C890        H892   1.087       .  S
C893        C894   1.348       .  D
C893        H895   1.086       .  S
C894        H896   1.087       .  S
C897        C898   1.408       .  A
C897        C902   1.400       .  A
C897        H903   1.083       .  S
C898        C899   1.408       .  A
C899        C900   1.413       .  A
C899        H904   1.083       .  S
C900        C901   1.413       .  A
C900        H905   1.083       .  S
C901        C902   1.406       .  A
C902        H906   1.083       .  S
C907        C908   1.341       .  D
C907        H909   1.086       .  S
C908        H910   1.087       .  S
C911        C912   1.341       .  D
C911        H913   1.086       .  S
C912        H914   1.087       .  S
C915        C916   1.408       .  A
C915        C920   1.397       .  A
C915        H921   1.083       .  S
C916        C917   1.403       .  A
C917        C918   1.396       .  A
C917        H922   1.083       .  S
C918        C919   1.406       .  A
C918        H923   1.083       .  S
C919        C920   1.401       .  A
C920        H924   1.083       .  S
C925        C926   1.404       .  A
C925        C930   1.396       .  A
C926        C927   1.405       .  A
C927        C928   1.398       .  A
C927        H932   1.083       .  S
C928        C929   1.404       .  A
C928        H933   1.083       .  S
C929        C930   1.404       .  A
C935        C936   1.343       .  D
C935        H937   1.087       .  S
C936        H938   1.087       .  S
C939        C940   1.344       .  D
C939        H941   1.087       .  S
C940        H942   1.086       .  S
C943        C944   1.199       .  T
C945        C946   1.201   1_545  T
C949       C1467   1.495       .  S
C949        C950   1.342       .  D
C949       H1923   1.087       .  S
C950        H952   1.087       .  S
H951       C1921   1.087       .  S
C953        C954   1.342       .  D
C953        H955   1.087       .  S
C954        H956   1.087       .  S
C957        C958   1.339       .  D
C957        H959   1.087       .  S
C958        H960   1.087   1_455  S
C961        C962   1.350       .  D
C961        H963   1.087       .  S
C962        H964   1.086       .  S
C965       C1463   1.468       .  S
C965        C966   1.339       .  D
C965       H1939   1.087       .  S
C966        H968   1.086       .  S
H967       C1937   1.087       .  S
C969        C970   1.343       .  D
C969        H971   1.087       .  S
C970        H972   1.087       .  S
C973        N974   1.361       .  A
C973        N978   1.361       .  A
C973       C1455   1.481       .  S
N974        C975   1.359       .  A
C975        N976   1.360       .  A
C975       C1448   1.479       .  S
N976        C977   1.359       .  A
C977        N978   1.361       .  A
C979        N980   1.361       .  A
C979        N984   1.352       .  A
C979       C1443   1.478       .  S
N980        C981   1.364       .  A
C981        N982   1.372       .  A
N982        C983   1.369       .  A
C983        N984   1.354       .  A
C983       C1440   1.484       .  S
C985        N986   1.352       .  A
C985        N990   1.350       .  A
C985       C1434   1.417       .  S
C987       C1432   1.428       .  S
N988        C989   1.356       .  A
C989        N990   1.351       .  A
C989       C1429   1.422       .  S
O991      Cr1009   1.981       .  S
O991        C999   1.265       .  A
O992      Cr1009   2.017       .  S
O992        C993   1.269       .  A
C993        O994   1.259       .  A
C993       C1402   1.478       .  S
O994      Cr1010   1.965       .  S
O995      Cr1010   1.992       .  S
O995        C996   1.265       .  A
C996       C1421   1.477       .  S
C996        O997   1.260       .  A
O997      Cr1011   1.982       .  S
O998      Cr1011   2.002       .  S
O998        C999   1.267       .  A
C999       C1412   1.481       .  S
O1000     Cr1009   2.016       .  S
O1000      C1494   1.263   1_545  A
O1001     Cr1009   1.985       .  S
O1001      C1002   1.261       .  A
C1002      C1452   1.477       .  S
C1002      O1003   1.262       .  A
O1003     Cr1010   2.000       .  S
O1004     Cr1010   1.964       .  S
O1004      C1005   1.256       .  A
C1005      C1433   1.422       .  S
C1005      O1006   1.262       .  A
O1006     Cr1011   2.003       .  S
O1007     Cr1497   2.001       .  S
O1007      C1008   1.264       .  A
C1008      C1426   1.480       .  S
C1008      O1486   1.256       .  A
Cr1009     O1012   1.776       .  S
Cr1010     O1012   1.771       .  S
Cr1011     O1493   1.963   1_545  S
Cr1011     O1012   1.768       .  S
O1013     Cr1031   1.957       .  S
O1013      C1021   1.255       .  A
O1014     Cr1031   2.042       .  S
O1014      C1015   1.274       .  A
C1015      O1016   1.262       .  A
C1015      C1384   1.497       .  S
O1016     Cr1032   1.964       .  S
O1017     Cr1032   2.003       .  S
O1017      C1018   1.263       .  A
C1018      C1393   1.483       .  S
C1018      O1019   1.265       .  A
O1019     Cr1033   1.993       .  S
O1020     Cr1033   2.010       .  S
O1020      C1021   1.265       .  A
C1021      C1405   1.474       .  S
O1022     Cr1031   2.031       .  S
O1022      C1030   1.272       .  A
O1023     Cr1031   1.960       .  S
O1023      C1024   1.251       .  A
C1024      C1398   1.469       .  S
C1024      O1025   1.262       .  A
O1025     Cr1032   2.007       .  S
O1026     Cr1032   1.971       .  S
O1026      C1027   1.259       .  A
C1027      C1430   1.422       .  S
C1027      O1028   1.261       .  A
O1028     Cr1033   1.997       .  S
O1029     Cr1033   1.981       .  S
O1029      C1030   1.259       .  A
C1030      C1436   1.496       .  S
Cr1031     O1034   1.785       .  S
Cr1032     O1034   1.777       .  S
Cr1033     O1034   1.784       .  S
O1035     Cr1053   2.049       .  S
O1035      C1043   1.277       .  A
O1036     Cr1053   1.962       .  S
O1036      C1037   1.256       .  A
C1037      O1038   1.268       .  A
C1037      C1415   1.482       .  S
O1038     Cr1054   2.016       .  S
O1039     Cr1054   1.973       .  S
O1039      C1040   1.255       .  A
C1040      C1379   1.477       .  S
C1040      O1041   1.266       .  A
O1041     Cr1055   2.014       .  S
O1042     Cr1055   1.961       .  S
O1042      C1043   1.261       .  A
C1043      C1387   1.496       .  S
O1044     Cr1053   1.978       .  S
O1044      C1052   1.258       .  A
O1045     Cr1053   2.045       .  S
O1045      C1532   1.276   1_545  A
C1046      C1439   1.490       .  S
C1046      O1531   1.266       .  A
C1046      O1047   1.265       .  A
O1047     Cr1540   2.011       .  S
O1048     Cr1540   1.972       .  S
O1048      C1535   1.259       .  A
C1049      C1917   1.429       .  S
C1049      O1534   1.268       .  A
C1049      O1050   1.256       .  A
O1050     Cr1055   1.960       .  S
O1051     Cr1055   2.009       .  S
O1051      C1052   1.264       .  A
C1052      C1447   1.479       .  S
Cr1053     O1056   1.775       .  S
Cr1054     O1533   1.960   1_545  S
Cr1054     O1534   2.019       .  S
Cr1054     O1056   1.775       .  S
Cr1055     O1056   1.771       .  S
C1057      N1058   1.366       .  A
C1057      N1062   1.357       .  A
C1057      C1375   1.476       .  S
N1058      C1059   1.364       .  A
C1059      N1060   1.356       .  A
C1059      C1425   1.472       .  S
N1060      C1061   1.351       .  A
C1061      N1062   1.356       .  A
C1061      C1397   1.473       .  S
C1063      N1064   1.361       .  A
C1063      N1068   1.359       .  A
C1063      C1371   1.479       .  S
N1064      C1065   1.363       .  A
C1065      N1066   1.361       .  A
C1065      C1367   1.489       .  S
N1066      C1067   1.364       .  A
C1067      N1068   1.355       .  A
C1067      C1364   1.484       .  S
C1069      N1070   1.361       .  A
C1069      N1074   1.365       .  A
C1069      C1360   1.488       .  S
N1070      C1071   1.354       .  A
C1071      N1072   1.359       .  A
C1071      C1352   1.480       .  S
N1072      C1073   1.360       .  A
C1073      N1074   1.366       .  A
C1073      C1355   1.486       .  S
C1075      N1076   1.356       .  A
C1075      N1080   1.356       .  A
C1075      C1349   1.432       .  S
N1076      C1077   1.357       .  A
C1077      N1078   1.352       .  A
C1077      C1345   1.426       .  S
N1078      C1079   1.353       .  A
C1079      N1080   1.356       .  A
C1079      C1347   1.424       .  S
O1081      C1089   1.259       .  A
O1082     Cr1099   2.028       .  S
O1082      C1083   1.271       .  A
C1083      O1084   1.262       .  A
C1083      C1336   1.496       .  S
O1084     Cr1100   1.980       .  S
O1085     Cr1100   2.020       .  S
O1085      C1086   1.270       .  A
C1086      C1444   1.482       .  S
C1086      O1087   1.260       .  A
O1087     Cr1101   1.975       .  S
O1088      C1089   1.270       .  A
C1089      C1326   1.484       .  S
O1090     Cr1099   2.024       .  S
O1090      C1098   1.269       .  A
O1091     Cr1099   1.970       .  S
O1091      C1092   1.256       .  A
C1092      C1368   1.482       .  S
C1092      O1093   1.269       .  A
O1093     Cr1100   2.023       .  S
O1094     Cr1100   1.972       .  S
O1094      C1095   1.256       .  A
C1095      C1350   1.431       .  S
C1095      O1096   1.262       .  A
O1096     Cr1101   2.007       .  S
O1097     Cr1101   1.970       .  S
O1097      C1098   1.258       .  A
C1098      C1356   1.485       .  S
Cr1099     O1102   1.780       .  S
Cr1100     O1102   1.775       .  S
Cr1101     O1102   1.780       .  S
O1103     Cr1121   1.984       .  S
O1103      C1111   1.265       .  A
O1104      C1105   1.274       .  A
C1105      O1106   1.259       .  A
C1105      C1312   1.486       .  S
O1107     Cr1122   2.005       .  S
O1107      C1108   1.264       .  A
C1108      C1456   1.482       .  S
C1108      O1109   1.260       .  A
O1109     Cr1123   1.985       .  S
O1110     Cr1123   2.014       .  S
O1110      C1111   1.271       .  A
C1111      C1339   1.487       .  S
O1112     Cr1121   2.006       .  S
O1112      C1120   1.261       .  A
O1113     Cr1121   1.995       .  S
O1113      C1114   1.264       .  A
C1114      C1351   1.484       .  S
C1114      O1115   1.264       .  A
O1115     Cr1122   2.006       .  S
O1116     Cr1122   1.956       .  S
O1116      C1117   1.255       .  A
C1117      C1346   1.425       .  S
C1117      O1118   1.266       .  A
O1118     Cr1123   2.013       .  S
O1119     Cr1123   1.985       .  S
O1119      C1120   1.260       .  A
C1120      C1322   1.485       .  S
Cr1121     O1124   1.779       .  S
Cr1122     O1124   1.777       .  S
Cr1123     O1124   1.773       .  S
O1125     Cr1143   1.967       .  S
O1125      C1133   1.257       .  A
O1126     Cr1143   2.027       .  S
O1126      C1127   1.273       .  A
C1127      O1128   1.262       .  A
C1127      C1329   1.485       .  S
O1128     Cr1144   1.971       .  S
O1129     Cr1144   2.014       .  S
O1129      C1130   1.268       .  A
C1130      C1376   1.479       .  S
C1130      O1131   1.257       .  A
O1131     Cr1145   1.973       .  S
O1132     Cr1145   2.002       .  S
O1132      C1133   1.264       .  A
C1133      C1315   1.476       .  S
O1134     Cr1143   2.034       .  S
O1134      C1142   1.272       .  A
O1135     Cr1143   1.978       .  S
O1135      C1136   1.259       .  A
C1136      C1308   1.474       .  S
C1136      O1137   1.264       .  A
O1137     Cr1144   2.007       .  S
O1138     Cr1144   1.968       .  S
O1138      C1139   1.258       .  A
C1139      C1348   1.424       .  S
C1139      O1140   1.262       .  A
O1140     Cr1145   2.003       .  S
O1141     Cr1145   1.957       .  S
O1141      C1142   1.254       .  A
C1142      C1363   1.478       .  S
Cr1143     O1146   1.779       .  S
Cr1144     O1146   1.771       .  S
Cr1145     O1146   1.778       .  S
C1147      N1148   1.363       .  A
C1147      N1152   1.366       .  A
C1147      C1303   1.488       .  S
N1148      C1149   1.358       .  A
C1149      N1150   1.355       .  A
C1149      C1307   1.478       .  S
N1150      C1151   1.354       .  A
C1151      N1152   1.365       .  A
C1151      C1321   1.481       .  S
C1153      N1154   1.356       .  A
C1153      N1158   1.361       .  A
C1153      C1422   1.469       .  S
N1154      C1155   1.355   1_556  A
C1155      N1156   1.353       .  A
C1155      C1299   1.475       .  S
N1156      C1157   1.361       .  A
C1157      N1158   1.360   1_554  A
C1157      C1781   1.477       .  S
C1159      N1160   1.362       .  A
C1159      N1164   1.373       .  A
C1159      C1394   1.486       .  S
N1160      C1161   1.357   1_556  A
C1161      N1162   1.344       .  A
C1161      C1292   1.462       .  S
N1162      C1163   1.346       .  A
C1163      N1164   1.367   1_554  A
C1163      C1287   1.471       .  S
C1165      N1166   1.357       .  A
C1165      N1170   1.354       .  A
C1165      C1282   1.429       .  S
N1166      C1167   1.356       .  A
C1167      N1168   1.354       .  A
C1167      C1283   1.426       .  S
N1168      C1169   1.353       .  A
C1169      N1170   1.354       .  A
C1169      C1285   1.425       .  S
O1171     Cr1189   1.966       .  S
O1171      C1179   1.258       .  A
O1172     Cr1189   1.997       .  S
O1172      C1173   1.263       .  A
C1173      O1174   1.256       .  A
C1173      C1262   1.471       .  S
O1175     Cr1190   2.006       .  S
O1177     Cr1191   1.984   1_455  S
O1178      C1179   1.263       .  A
C1179      C1272   1.466       .  S
O1180      C1188   1.260       .  A
O1181      C1182   1.256       .  A
C1182      C1300   1.470       .  S
C1182      O1183   1.267       .  A
O1183     Cr1190   2.012       .  S
O1184     Cr1190   1.974       .  S
O1184      C1185   1.257       .  A
C1185      C1286   1.424       .  S
C1185      O1186   1.259       .  A
O1186     Cr1191   1.992       .  S
O1187     Cr1191   1.966       .  S
O1187      C1188   1.260       .  A
C1188      C1291   1.471       .  S
Cr1190     O1192   1.770       .  S
Cr1191     O1192   1.773       .  S
O1193     Cr1211   1.967       .  S
O1193      C1201   1.257       .  A
O1194     Cr1211   2.011       .  S
O1194      C1195   1.269       .  A
C1195      O1196   1.256       .  A
C1195      C1275   1.460       .  S
O1196     Cr1212   1.943       .  S
O1197     Cr1212   2.014       .  S
O1197      C1198   1.265       .  A
C1198      C1372   1.476       .  S
C1198      O1199   1.258       .  A
O1199     Cr1213   1.977       .  S
O1200     Cr1213   2.025       .  S
O1200      C1201   1.268       .  A
C1201      C1248   1.489       .  S
O1202     Cr1211   2.018       .  S
O1202      C1210   1.268       .  A
O1203     Cr1211   1.975       .  S
O1203      C1204   1.256       .  A
C1204      C1258   1.479       .  S
C1204      O1205   1.265       .  A
O1205     Cr1212   2.012       .  S
O1206     Cr1212   1.951       .  S
O1206      C1693   1.255       .  A
C1207      C1284   1.427   1_565  S
C1207      O1692   1.256       .  A
C1207      O1694   1.264       .  A
O1208     Cr1213   2.022       .  S
O1208      C1693   1.269       .  A
O1209     Cr1213   1.963       .  S
O1209      C1210   1.257       .  A
C1210      C1296   1.476       .  S
Cr1211     O1214   1.777       .  S
Cr1212     O1214   1.776       .  S
Cr1213     O1214   1.774       .  S
O1215     Cr1233   1.990       .  S
O1215      C1223   1.261       .  A
O1216     Cr1233   1.976       .  S
O1216      C1217   1.262       .  A
C1217      O1218   1.269       .  A
C1217      C1251   1.489       .  S
O1218     Cr1234   2.022       .  S
O1219     Cr1234   1.983       .  S
O1219      C1220   1.264       .  A
C1220      C1304   1.484       .  S
C1220      O1221   1.270       .  A
O1221     Cr1235   2.019       .  S
O1222     Cr1235   1.970       .  S
O1222      C1223   1.257       .  A
C1223      C1265   1.472       .  S
O1224     Cr1233   1.965       .  S
O1224      C1232   1.259       .  A
O1225     Cr1233   2.005       .  S
O1225      C1226   1.260       .  A
C1226      C1288   1.481       .  S
C1226      O1227   1.264       .  A
O1227     Cr1234   1.987       .  S
O1228     Cr1234   2.008       .  S
O1228      C1229   1.262       .  A
C1229      C1281   1.429       .  S
C1229      O1230   1.254       .  A
O1230     Cr1235   1.964       .  S
O1231     Cr1235   2.024       .  S
O1231      C1232   1.271       .  A
C1232      C1243   1.475       .  S
Cr1233     O1236   1.777       .  S
Cr1234     O1236   1.771       .  S
Cr1235     O1236   1.776       .  S
C1237      N1238   1.361       .  A
C1237      N1242   1.355       .  A
C1237      C1380   1.476       .  S
N1238      C1239   1.360   1_556  A
C1239      N1240   1.364       .  A
C1239      C1743   1.481       .  S
N1240      C1241   1.359       .  A
C1241      N1242   1.358   1_554  A
C1241      C1244   1.484       .  S
C1243      C1244   1.346       .  D
C1243      H1245   1.087       .  S
C1244      H1246   1.086       .  S
C1247      C1248   1.407       .  A
C1247      C1252   1.406       .  A
C1247      H1253   1.083       .  S
C1248      C1249   1.408       .  A
C1249      C1250   1.397       .  A
C1249      H1254   1.083       .  S
C1250      C1251   1.405       .  A
C1250      H1255   1.083       .  S
C1251      C1252   1.409       .  A
C1252      H1256   1.083       .  S
C1257      C1725   1.478       .  S
C1257      C1258   1.344       .  D
C1257      H1259   1.087       .  S
C1258      H1260   1.086       .  S
C1261      C1262   1.403       .  A
C1261      C1266   1.391       .  A
C1261      H1267   1.083       .  S
C1262      C1263   1.406       .  A
C1263      C1264   1.395       .  A
C1263      H1268   1.083       .  S
C1264      C1265   1.404       .  A
C1264      H1269   1.083       .  S
C1265      C1266   1.405       .  A
C1266      H1270   1.083       .  S
C1271      C1272   1.403       .  A
C1271      C1276   1.388       .  A
C1271      H1277   1.083       .  S
C1272      C1273   1.405       .  A
C1273      C1274   1.396       .  A
C1273      H1278   1.083       .  S
C1274      C1275   1.402       .  A
C1274      H1279   1.083       .  S
C1275      C1276   1.401       .  A
C1276      H1280   1.084       .  S
C1281      C1282   1.202       .  T
C1283      C1284   1.201       .  T
C1285      C1286   1.200       .  T
C1287      C1288   1.337       .  D
C1287      H1289   1.088       .  S
C1288      H1290   1.086       .  S
C1291      C1292   1.337       .  D
C1291      H1293   1.086       .  S
C1292      H1294   1.087       .  S
C1295      C1643   1.485       .  S
C1295      C1296   1.346       .  D
C1295      H1297   1.086       .  S
C1296      H1298   1.087       .  S
C1299      C1300   1.342       .  D
C1299      H1301   1.087       .  S
C1300      H1302   1.087       .  S
C1303      C1304   1.351       .  D
C1303      H1305   1.086       .  S
C1304      H1306   1.086       .  S
C1307      C1308   1.345       .  D
C1307      H1309   1.086       .  S
C1308      H1310   1.087       .  S
C1311      C1798   1.404       .  A
C1311      C1316   1.397       .  A
C1311      H1317   1.083       .  S
C1312      C1797   1.406       .  A
C1312      C1313   1.405       .  A
C1313      C1800   1.397   1_545  A
C1313      H1318   1.083       .  S
C1314      C1799   1.397       .  A
C1314      C1315   1.405       .  A
C1314      H1319   1.083       .  S
C1315      C1316   1.406       .  A
C1316      H1320   1.083       .  S
C1321      C1322   1.343       .  D
C1321      H1323   1.087       .  S
C1322      H1324   1.086       .  S
C1325      C1326   1.407       .  A
C1325      C1330   1.403       .  A
C1325      H1331   1.083       .  S
C1326      C1327   1.404       .  A
C1327      C1328   1.400       .  A
C1327      H1332   1.083       .  S
C1328      C1329   1.407       .  A
C1328      H1333   1.083       .  S
C1329      C1330   1.406       .  A
C1330      H1334   1.083       .  S
C1335      C1336   1.408       .  A
C1335      C1826   1.401       .  A
C1335      H1341   1.083       .  S
C1336      C1337   1.409       .  A
C1337      C1338   1.408       .  A
C1337      H1342   1.083       .  S
C1338      C1825   1.409       .  A
C1338      H1343   1.083       .  S
C1339      C1824   1.407       .  A
C1339      C1340   1.406       .  A
C1340      C1821   1.401   1_545  A
C1340      H1344   1.083       .  S
C1345      C1346   1.200       .  T
C1347      C1348   1.199       .  T
C1349      C1350   1.204       .  T
C1351      H1353   1.087       .  S
C1352      H1354   1.086       .  S
C1355      H1357   1.087       .  S
C1356      H1358   1.086       .  S
C1359      C1360   1.349       .  D
C1360      H1362   1.087       .  S
C1363      C1364   1.340       .  D
C1363      H1365   1.087       .  S
C1364      H1366   1.086       .  S
C1367      C1368   1.347       .  D
C1367      H1369   1.087       .  S
C1368      H1370   1.087       .  S
C1371      C1372   1.347       .  D
C1371      H1373   1.087       .  S
C1372      H1374   1.087       .  S
C1375      C1376   1.342       .  D
C1375      H1377   1.087       .  S
C1376      H1378   1.087       .  S
C1379      C1380   1.342       .  D
C1379      H1381   1.087       .  S
C1380      H1382   1.087       .  S
C1383      C1384   1.406       .  A
C1383      C1388   1.393       .  A
C1383      H1389   1.083       .  S
C1384      C1385   1.411       .  A
C1385      C1386   1.414       .  A
C1385      H1390   1.083       .  S
C1386      C1387   1.410       .  A
C1386      H1391   1.083       .  S
C1387      C1388   1.406       .  A
C1388      H1392   1.083       .  S
C1393      C1394   1.342       .  D
C1393      H1395   1.086       .  S
C1394      H1396   1.087       .  S
C1397      C1398   1.340       .  D
C1397      H1399   1.087       .  S
C1398      H1400   1.087       .  S
C1401      C1402   1.408       .  A
C1401      C1406   1.399       .  A
C1401      H1407   1.083       .  S
C1402      C1403   1.403       .  A
C1403      C1404   1.396       .  A
C1403      H1408   1.083       .  S
C1404      C1405   1.406       .  A
C1404      H1409   1.083       .  S
C1405      C1406   1.402       .  A
C1406      H1410   1.083       .  S
C1411      C1412   1.408       .  A
C1411      C1416   1.398       .  A
C1411      H1903   1.083   1_545  S
C1412      C1413   1.403       .  A
C1413      C1414   1.397       .  A
C1413      H1418   1.083       .  S
C1414      C1415   1.409       .  A
C1414      H1419   1.083       .  S
C1415      C1416   1.403       .  A
C1416      H1906   1.083   1_545  S
H1417      C1897   1.083       .  S
H1420      C1902   1.083       .  S
C1421      C1422   1.345       .  D
C1421      H1423   1.086       .  S
C1422      H1424   1.087       .  S
C1425      C1426   1.343       .  D
C1425      H1427   1.087       .  S
C1426      H1428   1.086       .  S
C1429      C1430   1.198       .  T
C1431      C1535   1.428       .  S
C1431      C1432   1.202       .  T
C1433      C1920   1.198   1_545  T
C1434      C1919   1.195       .  T
C1435      C1436   1.348       .  D
C1436      H1438   1.087   1_655  S
C1439      C1440   1.342       .  D
C1439      H1441   1.087       .  S
C1440      H1442   1.087       .  S
C1443      C1444   1.343       .  D
C1443      H1445   1.087       .  S
C1444      H1446   1.087       .  S
C1447      C1448   1.345       .  D
C1447      H1449   1.087       .  S
C1448      H1450   1.087       .  S
C1451      C1452   1.341       .  D
C1452      H1454   1.087       .  S
C1455      C1456   1.348       .  D
C1455      H1457   1.087       .  S
C1456      H1458   1.086       .  S
C1459      N1460   1.364       .  A
C1459      N1464   1.362       .  A
C1459      C1941   1.481       .  S
N1460      C1461   1.362       .  A
C1461      N1462   1.351       .  A
C1461      C1934   1.476       .  S
N1462      C1463   1.352       .  A
C1463      N1464   1.360       .  A
C1465      N1466   1.357       .  A
C1465      N1470   1.351       .  A
C1465      C1929   1.469       .  S
N1466      C1467   1.357       .  A
C1467      N1468   1.374       .  A
N1468      C1469   1.373       .  A
C1469      N1470   1.354       .  A
C1469      C1926   1.490       .  S
C1471      N1472   1.354       .  A
C1471      N1476   1.352       .  A
C1471      C1920   1.422       .  S
C1473      C1918   1.429       .  S
N1474      C1475   1.356       .  A
C1475      N1476   1.353       .  A
C1475      C1915   1.425       .  S
O1477     Cr1495   2.024       .  S
O1477      C1485   1.271       .  A
O1478     Cr1495   1.965       .  S
O1478      C1479   1.259       .  A
C1479      O1480   1.264       .  A
C1479      C1888   1.476       .  S
O1480     Cr1496   2.005       .  S
O1481     Cr1496   1.995       .  S
O1481      C1482   1.265       .  A
C1482      C1907   1.473       .  S
C1482      O1483   1.262       .  A
O1483     Cr1497   1.991       .  S
O1484     Cr1497   1.955       .  S
O1484      C1485   1.256       .  A
C1485      C1898   1.479       .  S
O1486     Cr1495   1.983       .  S
O1487     Cr1495   2.013       .  S
O1487      C1488   1.266       .  A
C1488      C1938   1.482       .  S
C1488      O1489   1.261       .  A
O1489     Cr1496   1.978       .  S
O1490     Cr1496   1.992       .  S
O1490      C1491   1.261       .  A
C1491      C1919   1.416       .  S
C1491      O1492   1.258       .  A
O1492     Cr1497   1.966       .  S
O1493      C1494   1.259       .  A
C1494      C1912   1.483       .  S
Cr1495     O1498   1.774       .  S
Cr1496     O1498   1.775       .  S
Cr1497     O1498   1.767       .  S
O1499     Cr1517   1.941       .  S
O1499      C1507   1.251       .  A
O1500     Cr1517   2.031       .  S
O1500      C1501   1.273       .  A
C1501      O1502   1.260       .  A
C1501      C1870   1.479       .  S
O1502     Cr1518   1.959       .  S
O1503     Cr1518   2.002       .  S
O1503      C1504   1.263       .  A
C1504      C1879   1.469       .  S
C1504      O1505   1.259       .  A
O1505     Cr1519   1.973       .  S
O1506     Cr1519   2.015       .  S
O1506      C1507   1.265       .  A
C1507      C1891   1.475       .  S
O1508     Cr1517   2.036       .  S
O1508      C1516   1.273       .  A
O1509     Cr1517   1.954       .  S
O1509      C1510   1.251       .  A
C1510      C1884   1.460       .  S
C1510      O1511   1.263       .  A
O1511     Cr1518   2.003       .  S
O1512     Cr1518   1.968       .  S
O1512      C1513   1.259       .  A
C1513      C1916   1.424       .  S
C1513      O1514   1.264       .  A
O1514     Cr1519   2.005       .  S
O1515     Cr1519   1.965       .  S
O1515      C1516   1.255       .  A
C1516      C1922   1.488       .  S
Cr1517     O1520   1.775       .  S
Cr1518     O1520   1.774       .  S
Cr1519     O1520   1.779       .  S
O1521     Cr1539   1.991       .  S
O1521      C1529   1.266       .  A
O1522     Cr1539   1.994       .  S
O1522      C1523   1.262       .  A
C1523      O1524   1.263       .  A
C1523      C1901   1.479       .  S
O1524     Cr1540   1.987       .  S
O1525     Cr1540   2.006       .  S
O1525      C1526   1.265       .  A
C1526      C1865   1.494       .  S
C1526      O1527   1.263       .  A
O1527     Cr1541   1.997       .  S
O1528     Cr1541   2.006       .  S
O1528      C1529   1.270       .  A
C1529      C1873   1.488       .  S
O1530     Cr1539   1.995       .  S
O1530      C1538   1.257       .  A
O1531     Cr1539   1.998       .  S
C1532      C1925   1.490       .  S
C1532      O1533   1.253       .  A
C1535      O1536   1.262       .  A
O1536     Cr1541   1.999       .  S
O1537     Cr1541   1.986       .  S
O1537      C1538   1.260       .  A
C1538      C1933   1.478       .  S
Cr1539     O1542   1.781       .  S
Cr1540     O1542   1.776       .  S
Cr1541     O1542   1.776       .  S
C1543      N1544   1.369       .  A
C1543      N1548   1.354       .  A
C1543      C1861   1.472       .  S
N1544      C1545   1.368       .  A
C1545      N1546   1.353       .  A
C1545      C1911   1.469       .  S
N1546      C1547   1.345       .  A
C1547      N1548   1.351       .  A
C1547      C1883   1.463       .  S
C1549      N1550   1.354       .  A
C1549      N1554   1.356       .  A
C1549      C1857   1.465       .  S
N1550      C1551   1.357       .  A
C1551      N1552   1.361       .  A
C1551      C1853   1.481       .  S
N1552      C1553   1.365       .  A
C1553      N1554   1.354       .  A
C1553      C1850   1.478       .  S
C1555      N1556   1.369       .  A
C1555      N1560   1.357       .  A
C1555      C1846   1.483       .  S
N1556      C1557   1.367       .  A
C1557      N1558   1.353       .  A
C1557      C1838   1.479       .  S
N1558      C1559   1.351       .  A
C1559      N1560   1.355       .  A
C1559      C1841   1.468       .  S
C1561      N1562   1.356       .  A
C1561      N1566   1.356       .  A
C1561      C1835   1.431       .  S
N1562      C1563   1.356       .  A
C1563      N1564   1.355       .  A
C1563      C1831   1.430       .  S
N1564      C1565   1.355       .  A
C1565      N1566   1.356       .  A
C1565      C1833   1.429       .  S
O1567      C1575   1.260       .  A
O1568     Cr1585   2.015       .  S
O1568      C1569   1.267       .  A
C1569      O1570   1.260       .  A
C1569      C1822   1.487       .  S
O1570     Cr1586   1.977       .  S
O1571     Cr1586   2.002       .  S
O1571      C1572   1.268       .  A
C1572      C1930   1.470       .  S
C1572      O1573   1.259       .  A
O1573     Cr1587   1.971       .  S
O1574      C1575   1.268       .  A
C1575      C1812   1.481       .  S
O1576     Cr1585   2.022       .  S
O1576      C1584   1.268       .  A
O1577     Cr1585   1.971       .  S
O1577      C1578   1.258       .  A
C1578      C1854   1.473       .  S
C1578      O1579   1.266       .  A
O1579     Cr1586   2.007       .  S
O1580     Cr1586   1.972       .  S
O1580      C1581   1.256       .  A
C1581      C1836   1.431       .  S
C1581      O1582   1.262       .  A
O1582     Cr1587   2.006       .  S
O1583     Cr1587   1.976       .  S
O1583      C1584   1.260       .  A
C1584      C1842   1.486       .  S
Cr1585     O1588   1.777       .  S
Cr1586     O1588   1.776       .  S
Cr1587     O1588   1.778       .  S
O1589     Cr1607   2.035       .  S
O1589      C1597   1.274       .  A
O1590      C1591   1.267       .  A
C1591      O1592   1.260       .  A
C1591      C1798   1.474       .  S
O1593     Cr1608   1.988       .  S
O1593      C1594   1.260       .  A
C1594      C1942   1.483       .  S
C1594      O1595   1.262       .  A
O1595     Cr1609   2.001       .  S
O1596     Cr1609   1.977       .  S
O1596      C1597   1.264       .  A
C1597      C1825   1.496       .  S
O1598     Cr1607   1.991       .  S
O1598      C1606   1.261       .  A
O1599     Cr1607   2.034       .  S
O1599      C1600   1.269       .  A
C1600      C1837   1.497       .  S
C1600      O1601   1.259       .  A
O1601     Cr1608   1.981       .  S
O1602     Cr1608   2.011       .  S
O1602      C1603   1.266       .  A
C1603      C1832   1.429       .  S
C1603      O1604   1.259       .  A
O1604     Cr1609   1.969       .  S
O1605     Cr1609   2.004       .  S
O1605      C1606   1.261       .  A
C1606      C1808   1.486       .  S
Cr1607     O1610   1.781       .  S
Cr1608     O1610   1.779       .  S
Cr1609     O1610   1.782       .  S
O1611     Cr1629   1.988       .  S
O1611      C1619   1.261       .  A
O1612     Cr1629   2.022       .  S
O1612      C1613   1.272       .  A
C1613      O1614   1.262       .  A
C1613      C1815   1.481       .  S
O1614     Cr1630   1.968       .  S
O1615     Cr1630   2.015       .  S
O1615      C1616   1.270       .  A
C1616      C1862   1.481       .  S
C1616      O1617   1.255       .  A
O1617     Cr1631   1.971       .  S
O1618     Cr1631   2.008       .  S
O1618      C1619   1.267       .  A
C1619      C1801   1.491       .  S
O1620     Cr1629   2.026       .  S
O1620      C1628   1.271       .  A
O1621     Cr1629   1.992       .  S
O1621      C1622   1.261       .  A
C1622      C1794   1.491       .  S
C1622      O1623   1.265       .  A
O1623     Cr1630   2.015       .  S
O1624     Cr1630   1.966       .  S
O1624      C1625   1.257       .  A
C1625      C1834   1.428       .  S
C1625      O1626   1.264       .  A
O1626     Cr1631   2.011       .  S
O1627     Cr1631   1.951       .  S
O1627      C1628   1.252       .  A
C1628      C1849   1.472       .  S
Cr1629     O1632   1.777       .  S
Cr1630     O1632   1.772       .  S
Cr1631     O1632   1.777       .  S
C1633      N1634   1.359       .  A
C1633      N1638   1.352       .  A
C1633      C1789   1.476       .  S
N1634      C1635   1.360       .  A
C1635      N1636   1.369       .  A
C1635      C1793   1.487       .  S
N1636      C1637   1.368       .  A
C1637      N1638   1.354       .  A
C1637      C1807   1.477       .  S
C1639      N1640   1.358       .  A
C1639      N1644   1.365       .  A
C1639      C1908   1.482       .  S
N1640      C1641   1.360   1_556  A
C1641      N1642   1.355       .  A
C1641      C1785   1.475       .  S
N1642      C1643   1.359       .  A
C1643      N1644   1.359   1_554  A
C1645      N1646   1.353       .  A
C1645      N1650   1.354       .  A
C1645      C1880   1.475       .  S
N1646      C1647   1.358   1_556  A
C1647      N1648   1.375       .  A
C1647      C1778   1.495       .  S
N1648      C1649   1.376       .  A
C1649      N1650   1.354   1_554  A
C1649      C1773   1.493       .  S
C1651      N1652   1.359       .  A
C1651      N1656   1.357       .  A
C1651      C1768   1.432       .  S
N1652      C1653   1.357       .  A
C1653      N1654   1.349       .  A
C1653      C1769   1.423       .  S
N1654      C1655   1.348       .  A
C1655      N1656   1.355       .  A
C1655      C1771   1.421       .  S
O1657     Cr1675   1.964       .  S
O1657      C1665   1.257       .  A
O1658     Cr1675   2.025       .  S
O1658      C1659   1.270       .  A
C1659      O1660   1.264       .  A
C1659      C1748   1.498       .  S
O1661     Cr1676   1.997       .  S
O1663     Cr1677   1.994   1_455  S
O1664      C1665   1.265       .  A
C1665      C1758   1.473       .  S
O1666      C1674   1.273       .  A
O1667      C1668   1.250       .  A
C1668      C1786   1.472       .  S
C1668      O1669   1.260       .  A
O1669     Cr1676   2.004       .  S
O1670     Cr1676   1.975       .  S
O1670      C1671   1.262       .  A
C1671      C1772   1.421       .  S
C1671      O1672   1.261       .  A
O1672     Cr1677   1.993       .  S
O1673     Cr1677   1.981       .  S
O1673      C1674   1.259       .  A
C1674      C1777   1.498       .  S
Cr1676     O1678   1.778       .  S
Cr1677     O1678   1.785       .  S
O1679     Cr1697   1.987       .  S
O1679      C1687   1.263       .  A
O1680     Cr1697   2.021       .  S
O1680      C1681   1.270       .  A
C1681      O1682   1.257       .  A
C1681      C1761   1.474       .  S
O1682     Cr1698   1.953       .  S
O1683     Cr1698   1.995       .  S
O1683      C1684   1.264       .  A
C1684      C1858   1.466       .  S
C1684      O1685   1.257       .  A
O1685     Cr1699   1.972       .  S
O1686     Cr1699   2.003       .  S
O1686      C1687   1.264       .  A
C1687      C1734   1.486       .  S
O1688     Cr1697   2.016       .  S
O1688      C1696   1.268       .  A
O1689     Cr1697   1.995       .  S
O1689      C1690   1.262       .  A
C1690      C1744   1.478   1_565  S
C1690      O1691   1.261       .  A
O1691     Cr1698   1.996       .  S
O1692     Cr1698   1.965       .  S
C1693      C1770   1.423       .  S
O1694     Cr1699   2.011       .  S
O1695     Cr1699   1.960       .  S
O1695      C1696   1.257       .  A
C1696      C1782   1.469   1_565  S
Cr1697     O1700   1.773       .  S
Cr1698     O1700   1.770       .  S
Cr1699     O1700   1.772       .  S
O1701     Cr1719   2.052       .  S
O1701      C1709   1.278       .  A
O1702     Cr1719   1.958       .  S
O1702      C1703   1.253       .  A
C1703      O1704   1.267       .  A
C1703      C1737   1.487       .  S
O1704     Cr1720   2.024       .  S
O1705     Cr1720   1.966       .  S
O1705      C1706   1.255       .  A
C1706      C1790   1.475       .  S
C1706      O1707   1.269       .  A
O1707     Cr1721   2.024       .  S
O1708     Cr1721   1.961       .  S
O1708      C1709   1.260       .  A
C1709      C1751   1.498       .  S
O1710     Cr1719   1.963       .  S
O1710      C1718   1.252       .  A
O1711     Cr1719   2.052       .  S
O1711      C1712   1.279       .  A
C1712      C1774   1.493       .  S
C1712      O1713   1.254       .  A
O1713     Cr1720   1.957       .  S
O1714     Cr1720   2.020       .  S
O1714      C1715   1.267       .  A
C1715      C1767   1.431       .  S
C1715      O1716   1.258       .  A
O1716     Cr1721   1.965       .  S
O1717     Cr1721   2.028       .  S
O1717      C1718   1.268       .  A
C1718      C1729   1.482       .  S
Cr1719     O1722   1.773       .  S
Cr1720     O1722   1.781       .  S
Cr1721     O1722   1.774       .  S
C1723      N1724   1.362       .  A
C1723      N1728   1.368       .  A
C1723      C1866   1.489       .  S
N1724      C1725   1.358   1_556  A
C1725      N1726   1.353       .  A
N1726      C1727   1.356       .  A
C1727      N1728   1.369   1_554  A
C1727      C1730   1.480       .  S
C1729      C1730   1.339       .  D
C1729      H1731   1.087       .  S
C1730      H1732   1.087       .  S
C1733      C1734   1.410       .  A
C1733      C1738   1.404       .  A
C1733      H1739   1.083       .  S
C1734      C1735   1.403       .  A
C1735      C1736   1.397       .  A
C1735      H1740   1.083       .  S
C1736      C1737   1.409       .  A
C1736      H1741   1.083       .  S
C1737      C1738   1.405       .  A
C1738      H1742   1.083       .  S
C1743      C1744   1.342       .  D
C1743      H1745   1.086       .  S
C1744      H1746   1.087       .  S
C1747      C1748   1.412       .  A
C1747      C1752   1.411       .  A
C1747      H1753   1.083       .  S
C1748      C1749   1.405       .  A
C1749      C1750   1.399       .  A
C1749      H1754   1.083       .  S
C1750      C1751   1.410       .  A
C1750      H1755   1.083       .  S
C1751      C1752   1.407       .  A
C1752      H1756   1.083       .  S
C1757      C1758   1.401       .  A
C1757      C1762   1.394       .  A
C1757      H1763   1.083       .  S
C1758      C1759   1.406       .  A
C1759      C1760   1.398       .  A
C1759      H1764   1.083       .  S
C1760      C1761   1.403       .  A
C1760      H1765   1.083       .  S
C1761      C1762   1.407       .  A
C1762      H1766   1.083       .  S
C1767      C1768   1.203       .  T
C1769      C1770   1.199       .  T
C1771      C1772   1.198       .  T
C1773      C1774   1.339       .  D
C1773      H1775   1.087       .  S
C1774      H1776   1.087       .  S
C1777      C1778   1.345       .  D
C1777      H1779   1.086       .  S
C1778      H1780   1.087       .  S
C1781      C1782   1.343       .  D
C1781      H1783   1.086   1_545  S
C1782      H1784   1.087       .  S
C1785      C1786   1.341       .  D
C1785      H1787   1.087       .  S
C1786      H1788   1.087       .  S
C1789      C1790   1.340       .  D
C1789      H1791   1.087       .  S
C1790      H1792   1.087       .  S
C1793      C1794   1.346       .  D
C1793      H1795   1.087       .  S
C1794      H1796   1.086       .  S
C1797      C1802   1.408   1_545  A
C1797      H1803   1.083       .  S
C1798      C1799   1.404       .  A
C1799      H1804   1.083       .  S
C1800      C1801   1.405       .  A
C1800      H1805   1.083       .  S
C1801      C1802   1.411       .  A
C1802      H1806   1.083       .  S
C1807      C1808   1.341       .  D
C1807      H1809   1.087       .  S
C1808      H1810   1.087       .  S
C1811      C1812   1.407       .  A
C1811      C1816   1.402       .  A
C1811      H1817   1.083       .  S
C1812      C1813   1.404       .  A
C1813      C1814   1.398       .  A
C1813      H1818   1.083       .  S
C1814      C1815   1.405       .  A
C1814      H1819   1.083       .  S
C1815      C1816   1.405       .  A
C1816      H1820   1.083       .  S
C1821      C1822   1.406       .  A
C1821      H1827   1.083       .  S
C1822      C1823   1.407       .  A
C1823      C1824   1.403   1_565  A
C1823      H1828   1.083       .  S
C1824      H1829   1.083       .  S
C1825      C1826   1.407       .  A
C1826      H1830   1.083       .  S
C1831      C1832   1.202       .  T
C1833      C1834   1.201       .  T
C1835      C1836   1.204       .  T
C1837      H1839   1.087       .  S
C1838      H1840   1.087   1_455  S
C1841      H1843   1.087       .  S
C1842      H1844   1.086       .  S
C1845      C1846   1.340       .  D
C1846      H1848   1.087       .  S
C1849      C1850   1.337       .  D
C1849      H1851   1.087       .  S
C1850      H1852   1.087       .  S
C1853      C1854   1.347       .  D
C1853      H1855   1.087       .  S
C1854      H1856   1.086       .  S
C1857      C1858   1.341       .  D
C1857      H1859   1.087       .  S
C1858      H1860   1.087       .  S
C1861      C1862   1.340       .  D
C1861      H1863   1.087       .  S
C1862      H1864   1.086       .  S
C1865      C1866   1.350       .  D
C1865      H1867   1.086       .  S
C1866      H1868   1.087       .  S
C1869      C1870   1.402       .  A
C1869      C1874   1.394       .  A
C1869      H1875   1.084       .  S
C1870      C1871   1.406       .  A
C1871      C1872   1.407       .  A
C1871      H1876   1.083       .  S
C1872      C1873   1.409       .  A
C1872      H1877   1.083       .  S
C1873      C1874   1.407       .  A
C1874      H1878   1.083       .  S
C1879      C1880   1.343       .  D
C1879      H1881   1.087       .  S
C1880      H1882   1.087       .  S
C1883      C1884   1.336       .  D
C1883      H1885   1.087       .  S
C1884      H1886   1.087       .  S
C1887      C1888   1.408       .  A
C1887      C1892   1.401       .  A
C1887      H1893   1.083       .  S
C1888      C1889   1.402       .  A
C1889      C1890   1.388       .  A
C1889      H1894   1.083       .  S
C1890      C1891   1.407       .  A
C1890      H1895   1.083       .  S
C1891      C1892   1.403       .  A
C1892      H1896   1.083       .  S
C1897      C1898   1.402       .  A
C1897      C1902   1.397       .  A
C1898      C1899   1.409       .  A
C1899      C1900   1.396       .  A
C1899      H1904   1.083       .  S
C1900      C1901   1.401       .  A
C1900      H1905   1.083       .  S
C1901      C1902   1.409       .  A
C1907      C1908   1.341       .  D
C1907      H1909   1.087       .  S
C1908      H1910   1.087       .  S
C1911      C1912   1.341       .  D
C1911      H1913   1.088       .  S
C1912      H1914   1.086       .  S
C1915      C1916   1.199       .  T
C1917      C1918   1.202   1_545  T
C1921      C1922   1.342       .  D
C1922      H1924   1.087       .  S
C1925      C1926   1.339       .  D
C1925      H1927   1.087       .  S
C1926      H1928   1.087       .  S
C1929      C1930   1.341       .  D
C1929      H1931   1.087       .  S
C1930      H1932   1.087       .  S
C1933      C1934   1.340       .  D
C1933      H1935   1.086       .  S
C1934      H1936   1.087       .  S
C1937      C1938   1.347       .  D
C1938      H1940   1.086       .  S
C1941      C1942   1.349       .  D
C1941      H1943   1.087       .  S
C1942      H1944   1.086       .  S
