geometry optimzed in LAMMPS
_audit_creation_date              2020-11-30 
_audit_creation_method            'lammps2cif' 
_symmetry_space_group_name_H-M    'P1' 
_symmetry_Int_Tables_number       1 
_symmetry_cell_setting            triclinic 
loop_ 
_symmetry_equiv_pos_as_xyz 
  x,y,z 
_cell_length_a                    73.4306303 
_cell_length_b                    51.45928663462534 
_cell_length_c                    48.156761039048334 
_cell_angle_alpha                 90.1367582573049 
_cell_angle_beta                  90.15479904975328 
_cell_angle_gamma                 90.13800627998239 
loop_ 
_atom_site_label 
_atom_site_type_symbol 
_atom_site_fract_x 
_atom_site_fract_y 
_atom_site_fract_z 
_atom_site_charge 
N1          N  0.70581270  0.81088958  0.15349012    -0.27100
N2          N  0.69157242  0.82659926  0.15358260    -0.35000
C3          C  0.68623757  0.83053611  0.17997640     0.01200
C4          C  0.69775700  0.81682201  0.19725971     0.07200
C5          C  0.70993678  0.80447534  0.17984920    -0.05900
H6          H  0.67502820  0.84285053  0.18614999     0.07900
H7          H  0.72102592  0.79187578  0.18589430     0.09100
Cu8        Cu  0.68089303  0.84363032  0.11806622     0.44200
Cu9        Cu  0.71914453  0.79916869  0.11752269     0.42000
Cu10       Cu  0.70717960  0.83452239  0.05524124     0.43900
N11         N  0.67602552  0.86374152  0.08148597    -0.34500
N12         N  0.68645522  0.86180140  0.05922291    -0.28800
C13         C  0.68105758  0.87953158  0.04041851    -0.04900
C14         C  0.66632879  0.89284581  0.05119343     0.07400
C15         C  0.66344847  0.88228853  0.07717542     0.01200
H16         H  0.68732871  0.88241843  0.02035381     0.08800
H17         H  0.65348621  0.88843574  0.09232942     0.07900
N18         N  0.72524180  0.80339670  0.05573718    -0.36000
N19         N  0.72950085  0.79032954  0.07845676    -0.28100
C20         C  0.74090315  0.77087362  0.07167846    -0.03400
C21         C  0.74380218  0.77156109  0.04329319     0.05200
C22         C  0.73384615  0.79260883  0.03392856     0.03300
H23         H  0.74676031  0.75741757  0.08640133     0.08400
H24         H  0.73273109  0.79934433  0.01272930     0.07300
N25         N  0.83015535  0.67758695  0.86264358    -0.27100
N26         N  0.84441233  0.66196347  0.86156287    -0.35000
C27         C  0.85035467  0.66061624  0.83517685     0.01200
C28         C  0.83940344  0.67629941  0.81894354     0.07200
C29         C  0.82663083  0.68655254  0.83693531    -0.05900
H30         H  0.86139045  0.64838028  0.82815268     0.07900
H31         H  0.81534016  0.69906849  0.83160711     0.09100
Cu32       Cu  0.85396716  0.64130618  0.89560198     0.44200
Cu33       Cu  0.81576586  0.68493488  0.89900833     0.42000
Cu34       Cu  0.82734968  0.64558843  0.95911324     0.43900
N35         N  0.85878986  0.61878392  0.93057139    -0.34500
N36         N  0.84840812  0.61904212  0.95299395    -0.28800
C37         C  0.85420658  0.60040876  0.97051003    -0.04900
C38         C  0.86914363  0.58831314  0.95874433     0.07400
C39         C  0.87170516  0.60048521  0.93352605     0.01200
H40         H  0.84813947  0.59618857  0.99045088     0.08800
H41         H  0.88179155  0.59574341  0.91799392     0.07900
N42         N  0.80877766  0.67620278  0.96023091    -0.36000
N43         N  0.80455095  0.69037626  0.93825792    -0.28100
C44         C  0.79287563  0.70916313  0.94596658    -0.03400
C45         C  0.78982148  0.70705151  0.97422140     0.05200
C46         C  0.79991536  0.68571829  0.98251149     0.03300
H47         H  0.78712046  0.72337790  0.93198455     0.08400
H48         H  0.80110364  0.67811008  0.00335908     0.07300
N49         N  0.83317698  0.68496548  0.65475954    -0.27100
N50         N  0.84692807  0.66843384  0.65591217    -0.35000
C51         C  0.85170348  0.66491130  0.68265054     0.01200
C52         C  0.84039509  0.67985768  0.69909043     0.07200
C53         C  0.82885130  0.69238646  0.68076291    -0.05900
H54         H  0.86198389  0.65140537  0.68970070     0.07900
H55         H  0.81763686  0.70506190  0.68600934     0.09100
Cu56       Cu  0.85682702  0.64850154  0.62150049     0.44200
Cu57       Cu  0.81982844  0.69458094  0.61798379     0.42000
Cu58       Cu  0.83021049  0.65389886  0.55815226     0.43900
N59         N  0.86098522  0.62528921  0.58667383    -0.34500
N60         N  0.85047030  0.62586224  0.56431815    -0.28800
C61         C  0.85553428  0.60649619  0.54706822    -0.04900
C62         C  0.87013411  0.59353091  0.55892402     0.07400
C63         C  0.87325987  0.60606011  0.58392239     0.01200
H64         H  0.84921886  0.60236560  0.52721500     0.08800
H65         H  0.88328918  0.60095166  0.59946586     0.07900
N66         N  0.81245643  0.68571228  0.55680703    -0.36000
N67         N  0.80870863  0.70038908  0.57864000    -0.28100
C68         C  0.79713032  0.71933244  0.57094523    -0.03400
C69         C  0.79363172  0.71690978  0.54274699     0.05200
C70         C  0.80338713  0.69511069  0.53462833     0.03300
H71         H  0.79139225  0.73336335  0.58512581     0.08400
H72         H  0.80399059  0.68686749  0.51396415     0.07300
N73         N  0.70328795  0.80578347  0.36033292    -0.27100
N74         N  0.68857541  0.82057513  0.36028956    -0.35000
C75         C  0.68273683  0.82353182  0.33397808     0.01200
C76         C  0.69421236  0.80979038  0.31666600     0.07200
C77         C  0.70719529  0.79900248  0.33399299    -0.05900
H78         H  0.67162425  0.83601859  0.32776009     0.07900
H79         H  0.71906071  0.78802805  0.32778706     0.09100
Cu80       Cu  0.67874836  0.83958144  0.39522207     0.44200
Cu81       Cu  0.71836455  0.79762667  0.39594985     0.42000
Cu82       Cu  0.70795865  0.83794089  0.45577448     0.43900
N83         N  0.67486995  0.86302379  0.42982533    -0.34500
N84         N  0.68633991  0.86392429  0.45104253    -0.28800
C85         C  0.68133590  0.88339246  0.46815514    -0.04900
C86         C  0.66579235  0.89485280  0.45743129     0.07400
C87         C  0.66203275  0.88138329  0.43322047     0.01200
H88         H  0.68843775  0.88874816  0.48703911     0.08800
H89         H  0.65128783  0.88546029  0.41845419     0.07900
N90         N  0.72674344  0.80748163  0.45656661    -0.36000
N91         N  0.73051235  0.79281452  0.43474199    -0.28100
C92         C  0.74249854  0.77434171  0.44230179    -0.03400
C93         C  0.74625369  0.77713723  0.47039408     0.05200
C94         C  0.73620794  0.79860827  0.47858803     0.03300
H95         H  0.74813539  0.76015275  0.42820182     0.08400
H96         H  0.73549069  0.80677589  0.49927682     0.07300
N97         N  0.13485815  0.53881397  0.97586040    -0.27100
N98         N  0.15065331  0.52874912  0.98343082    -0.35000
C99         C  0.16414587  0.54510700  0.97631505     0.01200
C100        C  0.15651078  0.56620986  0.96307895     0.07200
C101        C  0.13793799  0.56160129  0.96296422    -0.05900
H102        H  0.17847159  0.54164586  0.98005060     0.07900
H103        H  0.12743172  0.57418684  0.95481920     0.09100
Cu104      Cu  0.15322995  0.49288613  0.00222881     0.44200
Cu105      Cu  0.10999349  0.52164149  0.98560242     0.42000
Cu106      Cu  0.11214309  0.46273806  0.02795218     0.43900
N107        N  0.15290960  0.45765525  0.02270546    -0.34500
N108        N  0.13810664  0.44737293  0.03380729    -0.28800
C109        C  0.14283054  0.42576256  0.04777542    -0.04900
C110        C  0.16137948  0.42209054  0.04467691     0.07400
C111        C  0.16732374  0.44255745  0.02859801     0.01200
H112        H  0.13344561  0.41348752  0.05905435     0.08800
H113        H  0.18119809  0.44673434  0.02251922     0.07900
N114        N  0.08795260  0.48039537  0.01544909    -0.36000
N115        N  0.08723674  0.50168586  0.00010557    -0.28100
C116        C  0.06968285  0.50784922  0.99555165    -0.03400
C117        C  0.05883334  0.48940882  0.00823907     0.05200
C118        C  0.07084022  0.47241102  0.02087460     0.03300
H119        H  0.06513703  0.52444149  0.98367149     0.08400
H120        H  0.06742293  0.45560921  0.03328483     0.07300
N121        N  0.90276900  0.44449397  0.03067542    -0.27100
N122        N  0.88709403  0.45502114  0.02325981    -0.35000
C123        C  0.87348439  0.43852759  0.02960969     0.01200
C124        C  0.88100915  0.41690519  0.04210177     0.07200
C125        C  0.89955411  0.42135917  0.04262756    -0.05900
H126        H  0.85917492  0.44233413  0.02613887     0.07900
H127        H  0.90996707  0.40856387  0.05068127     0.09100
Cu128      Cu  0.88512423  0.49193986  0.00638083     0.44200
Cu129      Cu  0.92780479  0.46146944  0.02289920     0.42000
Cu130      Cu  0.92781003  0.52294373  0.98627135     0.43900
N131        N  0.88678993  0.52869093  0.98898012    -0.34500
N132        N  0.90211636  0.53934113  0.98006469    -0.28800
C133        C  0.89819133  0.56222031  0.96792264    -0.04900
C134        C  0.87961848  0.56634238  0.96991023     0.07400
C135        C  0.87283169  0.54479300  0.98346666     0.01200
H136        H  0.90814552  0.57507016  0.95867992     0.08800
H137        H  0.85871210  0.54068567  0.98813837     0.07900
N138        N  0.95147576  0.50359306  0.99856811    -0.36000
N139        N  0.95129977  0.48111213  0.01183055    -0.28100
C140        C  0.96851818  0.47373298  0.01708047    -0.03400
C141        C  0.98014090  0.49263289  0.00709637     0.05200
C142        C  0.96891093  0.51118300  0.99521979     0.03300
H143        H  0.97229638  0.45601974  0.02766921     0.08400
H144        H  0.97308218  0.52874188  0.98467665     0.07300
N145        N  0.33366307  0.80720341  0.35814127    -0.27100
N146        N  0.34681329  0.82468065  0.35613742    -0.35000
C147        C  0.35213978  0.82628751  0.32949697     0.01200
C148        C  0.34207459  0.80868235  0.31399609     0.07200
C149        C  0.33030358  0.79720465  0.33277843    -0.05900
H150        H  0.36186476  0.84032654  0.32181329     0.07900
H151        H  0.31971953  0.78316425  0.32817971     0.09100
Cu152      Cu  0.35572610  0.84739259  0.38914516     0.44200
Cu153      Cu  0.32026645  0.79904906  0.39510722     0.42000
Cu154      Cu  0.33161567  0.84044196  0.45426733     0.43900
N155        N  0.36018216  0.87128258  0.42325784    -0.34500
N156        N  0.35064487  0.86993054  0.44648857    -0.28800
C157        C  0.35575843  0.88967040  0.46328891    -0.04900
C158        C  0.36937367  0.90367277  0.45015789     0.07400
C159        C  0.37189576  0.89138606  0.42493740     0.01200
H160        H  0.35023029  0.89327661  0.48373551     0.08800
H161        H  0.38118768  0.89709365  0.40864136     0.07900
N162        N  0.31386827  0.80854902  0.45634114    -0.36000
N163        N  0.30964603  0.79381092  0.43470097    -0.28100
C164        C  0.29811391  0.77496110  0.44286588    -0.03400
C165        C  0.29469723  0.77798265  0.47094759     0.05200
C166        C  0.30515956  0.79927770  0.47887010     0.03300
H167        H  0.29266704  0.76000282  0.42935417     0.08400
H168        H  0.30687410  0.80699320  0.49959752     0.07300
N169        N  0.20984638  0.67884133  0.64889553    -0.27100
N170        N  0.19526343  0.66373431  0.64924675    -0.35000
C171        C  0.18916677  0.66170633  0.67542329     0.01200
C172        C  0.20021827  0.67658613  0.69245760     0.07200
C173        C  0.21337748  0.68686559  0.67501470    -0.05900
H174        H  0.17816732  0.64904022  0.68171350     0.07900
H175        H  0.22491759  0.69874895  0.68100309     0.09100
Cu176      Cu  0.18524802  0.64406840  0.61499647     0.44200
Cu177      Cu  0.22452557  0.68656377  0.61282278     0.42000
Cu178      Cu  0.21066655  0.64886910  0.55170004     0.43900
N179        N  0.17998872  0.62108245  0.58066895    -0.34500
N180        N  0.19000588  0.62151691  0.55790459    -0.28800
C181        C  0.18432147  0.60230593  0.54085127    -0.04900
C182        C  0.16984730  0.58963599  0.55339242     0.07400
C183        C  0.16744073  0.60211257  0.57851564     0.01200
H184        H  0.19018080  0.59800929  0.52077480     0.08800
H185        H  0.15775495  0.59712038  0.59454481     0.07900
N186        N  0.22998283  0.67876418  0.55099632    -0.36000
N187        N  0.23518827  0.69213094  0.57316596    -0.28100
C188        C  0.24741594  0.71024345  0.56537767    -0.03400
C189        C  0.25021936  0.70808200  0.53702847     0.05200
C190        C  0.23871016  0.68816500  0.52857555     0.03300
H191        H  0.25361068  0.72428370  0.57926279     0.08400
H192        H  0.23624158  0.68162218  0.50755752     0.07300
N193        N  0.33228935  0.79991458  0.14967337    -0.27100
N194        N  0.34512833  0.81789957  0.15136889    -0.35000
C195        C  0.34979085  0.82125938  0.17815090     0.01200
C196        C  0.33927469  0.80479494  0.19414456     0.07200
C197        C  0.32849873  0.79125453  0.17537877    -0.05900
H198        H  0.35952433  0.83550180  0.18556757     0.07900
H199        H  0.31844149  0.77652437  0.17996800     0.09100
Cu200      Cu  0.35421529  0.83931291  0.11775567     0.44200
Cu201      Cu  0.31918489  0.79030509  0.11276456     0.42000
Cu202      Cu  0.32717820  0.83517999  0.05526667     0.43900
N203        N  0.35821814  0.86308718  0.08366516    -0.34500
N204        N  0.34755275  0.86292719  0.06148996    -0.28800
C205        C  0.35281182  0.88220366  0.04436477    -0.04900
C206        C  0.36769957  0.89462328  0.05617035     0.07400
C207        C  0.37078620  0.88195841  0.08097682     0.01200
H208        H  0.34652876  0.88649087  0.02455645     0.08800
H209        H  0.38108538  0.88658605  0.09633022     0.07900
N210        N  0.30970401  0.80319420  0.05319436    -0.36000
N211        N  0.30695096  0.78685792  0.07397758    -0.28100
C212        C  0.29527888  0.76816901  0.06566872    -0.03400
C213        C  0.29059075  0.77285449  0.03835374     0.05200
C214        C  0.29987615  0.79522482  0.03109569     0.03300
H215        H  0.29067055  0.75223538  0.07849314     0.08400
H216        H  0.29963348  0.80486167  0.01115795     0.07300
N217        N  0.20510709  0.67907212  0.85714743    -0.27100
N218        N  0.19196278  0.66161104  0.85460717    -0.35000
C219        C  0.18813283  0.65834050  0.82748087     0.01200
C220        C  0.19955686  0.67429699  0.81231298     0.07200
C221        C  0.20999337  0.68736458  0.83177788    -0.05900
H222        H  0.17820426  0.64472594  0.81934299     0.07900
H223        H  0.22044267  0.70172539  0.82789281     0.09100
Cu224      Cu  0.18112445  0.64129565  0.88796371     0.44200
Cu225      Cu  0.21668902  0.68976323  0.89470709     0.42000
Cu226      Cu  0.20571183  0.64911109  0.95316242     0.43900
N227        N  0.17604088  0.61929077  0.92321724    -0.34500
N228        N  0.18591808  0.62085694  0.94618956    -0.28800
C229        C  0.18045922  0.60221745  0.96388188    -0.04900
C230        C  0.16622661  0.58873169  0.95169171     0.07400
C231        C  0.16371754  0.60006664  0.92599777     0.01200
H232        H  0.18627069  0.59894252  0.98424186     0.08800
H233        H  0.15414939  0.59412039  0.91006992     0.07900
N234        N  0.22282993  0.68128064  0.95580787    -0.36000
N235        N  0.22681003  0.69615718  0.93429704    -0.28100
C236        C  0.23811960  0.71527371  0.94258474    -0.03400
C237        C  0.24120311  0.71246357  0.97071143     0.05200
C238        C  0.23143977  0.69064921  0.97843986     0.03300
H239        H  0.24371443  0.73006286  0.92912429     0.08400
H240        H  0.23077706  0.68209332  0.99891111     0.07300
N241        N  0.13728703  0.53884976  0.53490359    -0.27100
N242        N  0.15230367  0.52938438  0.52367394    -0.35000
C243        C  0.16609469  0.54624150  0.52791797     0.01200
C244        C  0.15951544  0.56706621  0.54299732     0.07200
C245        C  0.14125655  0.56168812  0.54723631    -0.05900
H246        H  0.17998355  0.54318070  0.52124043     0.07900
H247        H  0.13150716  0.57370191  0.55809009     0.09100
Cu248      Cu  0.15356451  0.49320492  0.50471005     0.44200
Cu249      Cu  0.11183746  0.52099730  0.53131326     0.42000
Cu250      Cu  0.11046394  0.46113763  0.49108657     0.43900
N251        N  0.15136235  0.45640673  0.48733337    -0.34500
N252        N  0.13565922  0.44522280  0.48091805    -0.28800
C253        C  0.13899726  0.42206744  0.46887758    -0.04900
C254        C  0.15764679  0.41836151  0.46829981     0.07400
C255        C  0.16506129  0.44041049  0.48025923     0.01200
H256        H  0.12861717  0.40861970  0.46181299     0.08800
H257        H  0.17936868  0.44471731  0.48318870     0.07900
N258        N  0.08735256  0.47948464  0.50668598    -0.36000
N259        N  0.08782721  0.50115611  0.52151053    -0.28100
C260        C  0.07064056  0.50812336  0.52778263    -0.03400
C261        C  0.05878066  0.48976182  0.51681137     0.05200
C262        C  0.06988052  0.47209741  0.50325809     0.03300
H263        H  0.06700120  0.52549974  0.53915459     0.08400
H264        H  0.06559364  0.45563620  0.49085551     0.07300
N265        N  0.90217531  0.45084040  0.47982928    -0.27100
N266        N  0.88668610  0.46091513  0.48877457    -0.35000
C267        C  0.87295581  0.44443198  0.48267112     0.01200
C268        C  0.88007453  0.42326498  0.46871887     0.07200
C269        C  0.89859948  0.42803964  0.46707883    -0.05900
H270        H  0.85877902  0.44790318  0.48744806     0.07900
H271        H  0.90878626  0.41554163  0.45791680     0.09100
Cu272      Cu  0.88474177  0.49718710  0.50788781     0.44200
Cu273      Cu  0.92766935  0.46738622  0.48778701     0.42000
Cu274      Cu  0.92705556  0.52462709  0.53241784     0.43900
N275        N  0.88647426  0.53320195  0.52763182    -0.34500
N276        N  0.90183948  0.54250830  0.53810647    -0.28800
C277        C  0.89835735  0.56524867  0.55094886    -0.04900
C278        C  0.88001398  0.57079135  0.54788853     0.07400
C279        C  0.87291230  0.55011282  0.53290135     0.01200
H280        H  0.90850211  0.57715178  0.56124989     0.08800
H281        H  0.85884415  0.54725245  0.52687345     0.07900
N282        N  0.95085676  0.50587799  0.51988290    -0.36000
N283        N  0.95114868  0.48539583  0.50321596    -0.28100
C284        C  0.96860729  0.47844906  0.49888590    -0.03400
C285        C  0.97985205  0.49556141  0.51316483     0.05200
C286        C  0.96809607  0.51246138  0.52652202     0.03300
H287        H  0.97283199  0.46217362  0.48620384     0.08400
H288        H  0.97174307  0.52817099  0.54042444     0.07300
N289        N  0.83435949  0.30546422  0.15049812    -0.27100
N290        N  0.84832013  0.32172387  0.15130811    -0.35000
C291        C  0.85313223  0.32585277  0.17792080     0.01200
C292        C  0.84178328  0.31130787  0.19468840     0.07200
C293        C  0.82989287  0.29888074  0.17665432    -0.05900
H294        H  0.86338263  0.33966039  0.18461572     0.07900
H295        H  0.81840961  0.28676855  0.18220245     0.09100
Cu296      Cu  0.85838662  0.34065429  0.11668041     0.44200
Cu297      Cu  0.82115132  0.29491039  0.11387547     0.42000
Cu298      Cu  0.83219019  0.33347792  0.05318345     0.43900
N299        N  0.86248600  0.36304329  0.08158666    -0.34500
N300        N  0.85208186  0.36177756  0.05915242    -0.28800
C301        C  0.85699094  0.38086995  0.04161116    -0.04900
C302        C  0.87136570  0.39434447  0.05343176     0.07400
C303        C  0.87456922  0.38250075  0.07864776     0.01200
H304        H  0.85073023  0.38443982  0.02162227     0.08800
H305        H  0.88447605  0.38822317  0.09418506     0.07900
N306        N  0.81457602  0.30176945  0.05233015    -0.36000
N307        N  0.81048471  0.28779890  0.07449844    -0.28100
C308        C  0.79892619  0.26866685  0.06700315    -0.03400
C309        C  0.79579177  0.27050185  0.03876092     0.05200
C310        C  0.80580262  0.29179064  0.03013384     0.03300
H311        H  0.79334044  0.25434027  0.08102688     0.08400
H312        H  0.80661653  0.29950332  0.00929369     0.07300
N313        N  0.71288929  0.17198756  0.85835945    -0.27100
N314        N  0.69917570  0.15542082  0.85622165    -0.35000
C315        C  0.69492031  0.15226078  0.82924889     0.01200
C316        C  0.70663002  0.16733934  0.81357416     0.07200
C317        C  0.71769983  0.17987839  0.83275590    -0.05900
H318        H  0.68432784  0.13947335  0.82153912     0.07900
H319        H  0.72830859  0.19391168  0.82858148     0.09100
Cu320      Cu  0.68775763  0.13648942  0.88995330     0.44200
Cu321      Cu  0.72461803  0.18214742  0.89618691     0.42000
Cu322      Cu  0.71125283  0.14307288  0.95599668     0.43900
N323        N  0.68144935  0.11468113  0.92479279    -0.34500
N324        N  0.69088886  0.11550464  0.94822702    -0.28800
C325        C  0.68455051  0.09689360  0.96535856    -0.04900
C326        C  0.67020714  0.08429775  0.95224801     0.07400
C327        C  0.66858033  0.09611720  0.92666643     0.01200
H328        H  0.68980790  0.09306209  0.98595127     0.08800
H329        H  0.65920840  0.09092189  0.91017977     0.07900
N330        N  0.72894126  0.17492895  0.95826472    -0.36000
N331        N  0.73378423  0.18890390  0.93643645    -0.28100
C332        C  0.74513783  0.20797582  0.94473649    -0.03400
C333        C  0.74737124  0.20621843  0.97315444     0.05200
C334        C  0.73703992  0.18495005  0.98107517     0.03300
H335        H  0.75128234  0.22215053  0.93108036     0.08400
H336        H  0.73565462  0.17718332  0.00181892     0.07300
N337        N  0.82747953  0.31797598  0.35781836    -0.27100
N338        N  0.84198014  0.33324261  0.35698750    -0.35000
C339        C  0.84728618  0.33591819  0.33041344     0.01200
C340        C  0.83543033  0.32193629  0.31371401     0.07200
C341        C  0.82317127  0.31055363  0.33178856    -0.05900
H342        H  0.85880683  0.34741929  0.32370025     0.07900
H343        H  0.81210739  0.29752307  0.32650286     0.09100
Cu344      Cu  0.85331725  0.35074590  0.39194427     0.44200
Cu345      Cu  0.81445009  0.30769841  0.39446284     0.42000
Cu346      Cu  0.82928381  0.34144192  0.45699450     0.43900
N347        N  0.85940626  0.37109119  0.42813776    -0.34500
N348        N  0.84986111  0.36910050  0.45131251    -0.28800
C349        C  0.85581531  0.38724216  0.46946133    -0.04900
C350        C  0.86999399  0.40084574  0.45728728     0.07400
C351        C  0.87195618  0.39000823  0.43119115     0.01200
H352        H  0.85025939  0.39028715  0.48999433     0.08800
H353        H  0.88121936  0.39627268  0.41509276     0.07900
N354        N  0.81040310  0.31092864  0.45684666    -0.36000
N355        N  0.80503560  0.29877565  0.43398624    -0.28100
C356        C  0.79318225  0.27985550  0.44080541    -0.03400
C357        C  0.79111310  0.27984528  0.46933874     0.05200
C358        C  0.80204691  0.29999042  0.47882090     0.03300
H359        H  0.78646250  0.26718706  0.42601632     0.08400
H360        H  0.80388684  0.30610430  0.50015549     0.07300
N361        N  0.70934145  0.17597017  0.64914738    -0.27100
N362        N  0.69667223  0.15771851  0.65036585    -0.35000
C363        C  0.69264544  0.15301392  0.67711058     0.01200
C364        C  0.70306051  0.16937257  0.69357753     0.07200
C365        C  0.71368902  0.18340201  0.67518613    -0.05900
H366        H  0.68324768  0.13817925  0.68401470     0.07900
H367        H  0.72390967  0.19780368  0.68037538     0.09100
Cu368      Cu  0.68608848  0.13904859  0.61569809     0.44200
Cu369      Cu  0.72034479  0.18897272  0.61184988     0.42000
Cu370      Cu  0.70824403  0.15119807  0.54998501     0.43900
N371        N  0.67960980  0.11945436  0.57934038    -0.34500
N372        N  0.68851237  0.12244462  0.55571304    -0.28800
C373        C  0.68219110  0.10491575  0.53716764    -0.04900
C374        C  0.66843471  0.09071596  0.54966276     0.07400
C375        C  0.66711151  0.10052182  0.57628238     0.01200
H376        H  0.68710531  0.10284080  0.51612124     0.08800
H377        H  0.65822850  0.09367777  0.59260918     0.07900
N378        N  0.72524200  0.18379198  0.54959951    -0.36000
N379        N  0.72934283  0.19768269  0.57193960    -0.28100
C380        C  0.74024917  0.21754328  0.56450280    -0.03400
C381        C  0.74302710  0.21629061  0.53611615     0.05200
C382        C  0.73351031  0.19446298  0.52742178     0.03300
H383        H  0.74610573  0.23144225  0.57886707     0.08400
H384        H  0.73266070  0.18690541  0.50647455     0.07300
N385        N  0.63644207  0.03605757  0.97304359    -0.27100
N386        N  0.65169187  0.02421640  0.98037649    -0.35000
C387        C  0.66595731  0.03975680  0.97462598     0.01200
C388        C  0.65943318  0.06221953  0.96258515     0.07200
C389        C  0.64069917  0.05919097  0.96167353    -0.05900
H390        H  0.68005958  0.03481566  0.97840957     0.07900
H391        H  0.63086974  0.07306319  0.95396980     0.09100
Cu392      Cu  0.65268349  0.98719892  0.99728182     0.44200
Cu393      Cu  0.61048548  0.02110851  0.98119568     0.42000
Cu394      Cu  0.61008652  0.96127634  0.02141671     0.43900
N395        N  0.65039605  0.95149118  0.01685996    -0.34500
N396        N  0.63491926  0.94271675  0.02726220    -0.28800
C397        C  0.63817355  0.92043030  0.04097177    -0.04900
C398        C  0.65649447  0.91469496  0.03854339     0.07400
C399        C  0.66382727  0.93469760  0.02303038     0.01200
H400        H  0.62794811  0.90916751  0.05174984     0.08800
H401        H  0.67799329  0.93740339  0.01760444     0.07900
N402        N  0.58672749  0.98174299  0.01067454    -0.36000
N403        N  0.58672315  0.00337021  0.99586890    -0.28100
C404        C  0.56935623  0.01114164  0.99220154    -0.03400
C405        C  0.55791916  0.99371860  0.00558067     0.05200
C406        C  0.56943502  0.97519402  0.01670070     0.03300
H407        H  0.56537974  0.02773249  0.97988967     0.08400
H408        H  0.56549406  0.95801281  0.02813420     0.07300
N409        N  0.40176250  0.03812847  0.98275601    -0.27100
N410        N  0.38625815  0.02791829  0.99149176    -0.35000
C411        C  0.37265089  0.04479252  0.98668997     0.01200
C412        C  0.37988059  0.06642241  0.97384603     0.07200
C413        C  0.39832590  0.06152647  0.97144208    -0.05900
H414        H  0.35845144  0.04112859  0.99121292     0.07900
H415        H  0.40850140  0.07409494  0.96231577     0.09100
Cu416      Cu  0.38401819  0.99083275  0.00782561     0.44200
Cu417      Cu  0.42691625  0.02012585  0.98797926     0.42000
Cu418      Cu  0.42620506  0.96000369  0.02770440     0.43900
N419        N  0.38525684  0.95424238  0.02558719    -0.34500
N420        N  0.40057529  0.94368553  0.03458387    -0.28800
C421        C  0.39665160  0.92092206  0.04696151    -0.04900
C422        C  0.37806209  0.91675618  0.04505523     0.07400
C423        C  0.37126281  0.93818347  0.03128905     0.01200
H424        H  0.40662745  0.90811402  0.05619024     0.08800
H425        H  0.35714085  0.94219188  0.02651517     0.07900
N426        N  0.45003578  0.97810267  0.01414328    -0.36000
N427        N  0.45024417  0.99972788  0.99933990    -0.28100
C428        C  0.46764604  0.00626432  0.99398582    -0.03400
C429        C  0.47897448  0.98772884  0.00558916     0.05200
C430        C  0.46731967  0.97034734  0.01853242     0.03300
H431        H  0.47178736  0.02341028  0.98265713     0.08400
H432        H  0.47106156  0.95375710  0.03100803     0.07300
N433        N  0.21435663  0.31852128  0.15679065    -0.27100
N434        N  0.20122834  0.33598277  0.15835217    -0.35000
C435        C  0.19606967  0.33848582  0.18499983     0.01200
C436        C  0.20657875  0.32193059  0.20088077     0.07200
C437        C  0.21794303  0.30943291  0.18238071    -0.05900
H438        H  0.18554695  0.35148499  0.19228541     0.07900
H439        H  0.22796642  0.29470739  0.18709990     0.09100
Cu440      Cu  0.19126686  0.35562338  0.12404326     0.44200
Cu441      Cu  0.22648247  0.30778155  0.11980051     0.42000
Cu442      Cu  0.21397089  0.34391553  0.05792136     0.43900
N443        N  0.18477830  0.37462482  0.08746950    -0.34500
N444        N  0.19372130  0.37166749  0.06385159    -0.28800
C445        C  0.18682322  0.38821361  0.04494215    -0.04900
C446        C  0.17265026  0.40168021  0.05715004     0.07400
C447        C  0.17169196  0.39257111  0.08402442     0.01200
H448        H  0.19152928  0.38993599  0.02375332     0.08800
H449        H  0.16250905  0.39903147  0.10014514     0.07900
N450        N  0.23158757  0.31222445  0.05779922    -0.36000
N451        N  0.23604756  0.29921921  0.08047079    -0.28100
C452        C  0.24707220  0.27944300  0.07356812    -0.03400
C453        C  0.24987103  0.28012693  0.04523925     0.05200
C454        C  0.23967587  0.30092815  0.03580141     0.03300
H455        H  0.25224152  0.26521510  0.08806232     0.08400
H456        H  0.23815589  0.30725300  0.01451439     0.07300
N457        N  0.32653707  0.17284019  0.86552277    -0.27100
N458        N  0.33908068  0.15461111  0.86314382    -0.35000
C459        C  0.34289856  0.15115703  0.83608845     0.01200
C460        C  0.33208750  0.16783144  0.82074627     0.07200
C461        C  0.32206985  0.18155237  0.84010177    -0.05900
H462        H  0.35286499  0.13760647  0.82815239     0.07900
H463        H  0.31257649  0.19715038  0.83616477     0.09100
Cu464      Cu  0.35028387  0.13549242  0.89698609     0.44200
Cu465      Cu  0.31588743  0.18455596  0.90321447     0.42000
Cu466      Cu  0.32928668  0.14778188  0.96421785     0.43900
N467        N  0.35776258  0.11676977  0.93335748    -0.34500
N468        N  0.34946598  0.12004807  0.95747446    -0.28800
C469        C  0.35628599  0.10290912  0.97584859    -0.04900
C470        C  0.36974796  0.08868534  0.96277049     0.07400
C471        C  0.37036295  0.09799482  0.93593979     0.01200
H472        H  0.35172239  0.10086456  0.99707648     0.08800
H473        H  0.37868690  0.09074130  0.91912928     0.07900
N474        N  0.31027131  0.17780478  0.96482422    -0.36000
N475        N  0.30551698  0.19109555  0.94248641    -0.28100
C476        C  0.29336045  0.20938398  0.94965185    -0.03400
C477        C  0.29010835  0.20738824  0.97779446     0.05200
C478        C  0.30126490  0.18745692  0.98687123     0.03300
H479        H  0.28782757  0.22367457  0.93554263     0.08400
H480        H  0.30293901  0.18078791  0.00801050     0.07300
N481        N  0.20618821  0.30508117  0.36352379    -0.27100
N482        N  0.19170171  0.32026227  0.36225997    -0.35000
C483        C  0.18705797  0.32366597  0.33548257     0.01200
C484        C  0.19911171  0.30984198  0.31916693     0.07200
C485        C  0.21118769  0.29855947  0.33757816    -0.05900
H486        H  0.17647994  0.33666236  0.32835884     0.07900
H487        H  0.22319071  0.28740580  0.33243844     0.09100
Cu488      Cu  0.18087586  0.33953776  0.39632380     0.44200
Cu489      Cu  0.21958352  0.29601811  0.40019103     0.42000
Cu490      Cu  0.20934779  0.33882466  0.45758754     0.43900
N491        N  0.17677588  0.36368757  0.43030804    -0.34500
N492        N  0.18813407  0.36491016  0.45163760    -0.28800
C493        C  0.18306124  0.38451993  0.46843845    -0.04900
C494        C  0.16757685  0.39578116  0.45740982     0.07400
C495        C  0.16390581  0.38205820  0.43332443     0.01200
H496        H  0.19000102  0.38996704  0.48743390     0.08800
H497        H  0.15315590  0.38586214  0.41848362     0.07900
N498        N  0.22665301  0.30705436  0.46069306    -0.36000
N499        N  0.23021668  0.29119189  0.43977859    -0.28100
C500        C  0.24131101  0.27219243  0.44874199    -0.03400
C501        C  0.24467189  0.27604475  0.47674460     0.05200
C502        C  0.23538816  0.29855889  0.48351710     0.03300
H503        H  0.24653176  0.25667367  0.43584813     0.08400
H504        H  0.23527619  0.30844003  0.50334614     0.07300
N505        N  0.33206972  0.18304169  0.65715028    -0.27100
N506        N  0.34444202  0.16444457  0.65879000    -0.35000
C507        C  0.34843079  0.16018264  0.68566029     0.01200
C508        C  0.33829281  0.17705861  0.70174573     0.07200
C509        C  0.32787434  0.19102338  0.68302136    -0.05900
H510        H  0.35733507  0.14493593  0.69298113     0.07900
H511        H  0.31758383  0.20532387  0.68789760     0.09100
Cu512      Cu  0.35419596  0.14341285  0.62503000     0.44200
Cu513      Cu  0.32024879  0.19506070  0.61997915     0.42000
Cu514      Cu  0.33084646  0.15369629  0.56075097     0.43900
N515        N  0.35963821  0.12199457  0.58932389    -0.34500
N516        N  0.35027933  0.12489036  0.56605509    -0.28800
C517        C  0.35582089  0.10701764  0.54746875    -0.04900
C518        C  0.36953989  0.09247032  0.55948284     0.07400
C519        C  0.37168785  0.10255024  0.58596754     0.01200
H520        H  0.35040853  0.10496763  0.52665801     0.08800
H521        H  0.38090055  0.09570590  0.60190739     0.07900
N522        N  0.31337923  0.18531059  0.55898805    -0.36000
N523        N  0.30963997  0.20066349  0.58027984    -0.28100
C524        C  0.29798539  0.21922245  0.57180179    -0.03400
C525        C  0.29443426  0.21554011  0.54378674     0.05200
C526        C  0.30422111  0.19363916  0.53651352     0.03300
H527        H  0.29249149  0.23429518  0.58502857     0.08400
H528        H  0.30434284  0.18392728  0.51660194     0.07300
N529        N  0.63413300  0.94534143  0.47948969    -0.27100
N530        N  0.64988039  0.95647086  0.48577639    -0.35000
C531        C  0.66349641  0.93997884  0.47955617     0.01200
C532        C  0.65598760  0.91764123  0.46829448     0.07200
C533        C  0.63736516  0.92174657  0.46838267    -0.05900
H534        H  0.67782507  0.94423466  0.48230818     0.07900
H535        H  0.62692227  0.90838957  0.46133486     0.09100
Cu536      Cu  0.65217272  0.99408977  0.50135475     0.44200
Cu537      Cu  0.60895582  0.96223332  0.48799600     0.42000
Cu538      Cu  0.61046045  0.02264051  0.52709765     0.43900
N539        N  0.65082342  0.03097354  0.51899463    -0.34500
N540        N  0.63579885  0.04057129  0.53006842    -0.28800
C541        C  0.63971988  0.06349051  0.54221986    -0.04900
C542        C  0.65796830  0.06883224  0.53804404     0.07400
C543        C  0.66459872  0.04789143  0.52316583     0.01200
H544        H  0.62999849  0.07539549  0.55326956     0.08800
H545        H  0.67856707  0.04459387  0.51702637     0.07900
N546        N  0.58641070  0.00368306  0.51631997    -0.36000
N547        N  0.58583396  0.98198172  0.50153440    -0.28100
C548        C  0.56829867  0.97549800  0.49696555    -0.03400
C549        C  0.55736945  0.99407464  0.50929889     0.05200
C550        C  0.56927217  0.01152811  0.52156956     0.03300
H551        H  0.56383395  0.95858050  0.48541116     0.08400
H552        H  0.56574183  0.02892107  0.53299222     0.07300
N553        N  0.40128312  0.95396330  0.47256650    -0.27100
N554        N  0.38570366  0.96451830  0.48042979    -0.35000
C555        C  0.37195196  0.94824852  0.47376441     0.01200
C556        C  0.37920054  0.92671463  0.46061395     0.07200
C557        C  0.39779504  0.93105820  0.46001184    -0.05900
H558        H  0.35773165  0.95187003  0.47809216     0.07900
H559        H  0.40809448  0.91801140  0.45210136     0.09100
Cu560      Cu  0.38393243  0.00042616  0.50037075     0.44200
Cu561      Cu  0.42671182  0.96953739  0.48253382     0.42000
Cu562      Cu  0.42602059  0.02441611  0.53014569     0.43900
N563        N  0.38582918  0.03471183  0.52333873    -0.34500
N564        N  0.40098805  0.04246317  0.53578021    -0.28800
C565        C  0.39749508  0.06403008  0.55071714    -0.04900
C566        C  0.37937740  0.07045261  0.54702690     0.07400
C567        C  0.37240519  0.05156679  0.52944008     0.01200
H568        H  0.40750013  0.07456680  0.56287212     0.08800
H569        H  0.35848724  0.04980031  0.52223569     0.07900
N570        N  0.44974983  0.00588422  0.51751140    -0.36000
N571        N  0.45006321  0.98629094  0.49967376    -0.28100
C572        C  0.46749907  0.97944862  0.49514959    -0.03400
C573        C  0.47864658  0.99527893  0.51111615     0.05200
C574        C  0.46695625  0.01197378  0.52480475     0.03300
H575        H  0.47176369  0.96409317  0.48124803     0.08400
H576        H  0.47067705  0.02779763  0.53852992     0.07300
C577        C  0.52810608  0.98788053  0.53380135    -0.05600
C578        C  0.53723846  0.99504626  0.50945166     0.00300
C579        C  0.52712551  0.00302199  0.48592107    -0.08300
C580        C  0.50797121  0.00282267  0.48730758    -0.05600
C581        C  0.49880916  0.99548809  0.51158633     0.00300
C582        C  0.50893984  0.98792684  0.53529722    -0.08200
C583        C  0.49952234  0.97931085  0.56174683     0.62200
H584        H  0.53615537  0.98204419  0.55159681     0.12900
H585        H  0.49994763  0.00858620  0.46945699     0.12900
C586        C  0.53659644  0.01225228  0.45976168     0.62400
F587        F  0.51182846  0.97059891  0.58144567    -0.22700
F588        F  0.48753743  0.95923817  0.55590022    -0.20000
F589        F  0.49002489  0.99989645  0.57308323    -0.19700
F590        F  0.54674276  0.99225570  0.44852780    -0.19800
F591        F  0.54801020  0.03286559  0.46610913    -0.20100
F592        F  0.52429404  0.02049248  0.43982472    -0.22800
C593        C  0.27511784  0.25780841  0.48591247    -0.05600
C594        C  0.25702165  0.26062065  0.49458697     0.00300
C595        C  0.25110630  0.24809178  0.51915907    -0.08300
C596        C  0.26383938  0.23371227  0.53471298    -0.05600
C597        C  0.28196253  0.23091638  0.52603481     0.00300
C598        C  0.28779576  0.24320593  0.50125579    -0.08200
C599        C  0.30736484  0.24155682  0.49126919     0.62200
H600        H  0.27926065  0.26727997  0.46687500     0.12900
H601        H  0.25967335  0.22416256  0.55369176     0.12900
C602        C  0.23133265  0.24890965  0.52829830     0.62400
F603        F  0.31070864  0.25858883  0.46964997    -0.22700
F604        F  0.31096753  0.21673276  0.48185510    -0.20000
F605        F  0.31919363  0.24772068  0.51270887    -0.19700
F606        F  0.22016650  0.24097189  0.50668582    -0.19800
F607        F  0.22670102  0.27385145  0.53614414    -0.20100
F608        F  0.22812785  0.23269777  0.55067353    -0.22800
C609        C  0.34931485  0.17983029  0.77887230    -0.05600
C610        C  0.33273006  0.17178244  0.79037818     0.00300
C611        C  0.31761632  0.16675922  0.77278929    -0.08300
C612        C  0.31986418  0.16940053  0.74388783    -0.05600
C613        C  0.33662977  0.17674560  0.73235662     0.00300
C614        C  0.35148093  0.18278995  0.75005404    -0.08200
C615        C  0.36932514  0.19310714  0.73863921     0.62200
H616        H  0.36062044  0.18377512  0.79276775     0.12900
H617        H  0.30864742  0.16512740  0.72994243     0.12900
C618        C  0.29946374  0.15768407  0.78434613     0.62400
F619        F  0.38112759  0.20069823  0.75963368    -0.22700
F620        F  0.36598743  0.21449993  0.72206314    -0.20000
F621        F  0.37785345  0.17413647  0.72310242    -0.19700
F622        F  0.29197267  0.17695516  0.80070571    -0.19800
F623        F  0.30195599  0.13555211  0.80014069    -0.20100
F624        F  0.28710284  0.15187908  0.76346158    -0.22800
C625        C  0.19046441  0.30430417  0.24160072    -0.05600
C626        C  0.20544459  0.31803760  0.23112698     0.00300
C627        C  0.21872394  0.32822992  0.24951732    -0.08300
C628        C  0.21622987  0.32495498  0.27823775    -0.05600
C629        C  0.20108317  0.31160731  0.28875486     0.00300
C630        C  0.18821642  0.30047925  0.27030592    -0.08200
C631        C  0.17263533  0.28388486  0.28094369     0.62200
H632        H  0.18060794  0.29644081  0.22704199     0.12900
H633        H  0.22601994  0.33298875  0.29279212     0.12900
C634        C  0.23529126  0.34271488  0.23878613     0.62400
F635        F  0.16262547  0.27300019  0.25944595    -0.22700
F636        F  0.16103228  0.29881023  0.29688503    -0.20000
F637        F  0.17950314  0.26388082  0.29697876    -0.19700
F638        F  0.22984183  0.36337609  0.22245662    -0.19800
F639        F  0.24589331  0.32608356  0.22312411    -0.20100
F640        F  0.24595076  0.35240227  0.26020734    -0.18000
C641        C  0.28870786  0.24093581  0.01432687    -0.05600
C642        C  0.27932427  0.22540409  0.99507609     0.00300
C643        C  0.26016660  0.22760685  0.99251595    -0.08300
C644        C  0.25102559  0.24585658  0.00923500    -0.05600
C645        C  0.26044337  0.26147515  0.02841155     0.00300
C646        C  0.27958924  0.25918235  0.03100715    -0.08200
C647        C  0.29041055  0.27654553  0.05056085     0.62200
H648        H  0.30335376  0.23888203  0.01587377     0.12900
H649        H  0.23638578  0.24796639  0.00764320     0.12900
C650        C  0.24940774  0.21023783  0.97288089     0.62400
F651        F  0.30899236  0.27307636  0.04755505    -0.22700
F652        F  0.28596291  0.27098295  0.07775930    -0.20000
F653        F  0.28652982  0.30233134  0.04511971    -0.19700
F654        F  0.25322052  0.18445316  0.97844314    -0.19800
F655        F  0.25401228  0.21568319  0.94571385    -0.20100
F656        F  0.23081562  0.21379258  0.97565693    -0.22800
C657        C  0.52909311  0.97060472  0.99515799    -0.05600
C658        C  0.53768255  0.99296430  0.00568944     0.00300
C659        C  0.52692363  0.01317455  0.01707949    -0.08300
C660        C  0.50781066  0.01052307  0.01674911    -0.05600
C661        C  0.49921316  0.98824813  0.00602605     0.00300
C662        C  0.50998440  0.96789420  0.99493015    -0.08200
C663        C  0.50141856  0.94383724  0.98200197     0.62200
H664        H  0.53756593  0.95525937  0.98684333     0.12900
H665        H  0.49934371  0.02588239  0.02505119     0.12900
C666        C  0.53552131  0.03701712  0.03038485     0.62400
F667        F  0.51429370  0.92801782  0.96960406    -0.22700
F668        F  0.48896813  0.95103436  0.96185161    -0.20000
F669        F  0.49270465  0.92942611  0.00216421    -0.19700
F670        F  0.54407338  0.05182530  0.01039054    -0.19800
F671        F  0.54812568  0.02950309  0.05018080    -0.20100
F672        F  0.52269078  0.05251556  0.04334352    -0.22800
C673        C  0.77008071  0.22154974  0.50611195    -0.05600
C674        C  0.75501389  0.23307007  0.51903668     0.00300
C675        C  0.75156782  0.25989163  0.51498949    -0.08300
C676        C  0.76379091  0.27451331  0.49874930    -0.05600
C677        C  0.77894205  0.26303358  0.48604284     0.00300
C678        C  0.78220208  0.23611959  0.48965524    -0.08200
C679        C  0.79866232  0.22301808  0.47681663     0.62200
H680        H  0.77236227  0.20097875  0.50927299     0.12900
H681        H  0.76152631  0.29508977  0.49559300     0.12900
C682        C  0.73473663  0.27280420  0.52689917     0.62400
F683        F  0.79998562  0.19719277  0.48456140    -0.22700
F684        F  0.81438676  0.23561471  0.48530423    -0.20000
F685        F  0.79742731  0.22391701  0.44820378    -0.19700
F686        F  0.73583518  0.27342714  0.55552870    -0.19800
F687        F  0.71934936  0.25906883  0.51898702    -0.20100
F688        F  0.73283847  0.29809732  0.51759852    -0.22800
C689        C  0.69034589  0.17655861  0.76980277    -0.05600
C690        C  0.70668108  0.16942896  0.78287072     0.00300
C691        C  0.72197735  0.16265732  0.76645925    -0.08300
C692        C  0.72029214  0.16332325  0.73730718    -0.05600
C693        C  0.70385615  0.17005150  0.72430645     0.00300
C694        C  0.68867575  0.17720721  0.74069209    -0.08200
C695        C  0.67095449  0.18614597  0.72753835     0.62200
H696        H  0.67880233  0.18151764  0.78271657     0.12900
H697        H  0.73175252  0.15813113  0.72432940     0.12900
C698        C  0.73976584  0.15382890  0.77950234     0.62400
F699        F  0.65877109  0.19519810  0.74718211    -0.22700
F700        F  0.66277467  0.16573850  0.71357218    -0.20000
F701        F  0.67439716  0.20611124  0.70908214    -0.19700
F702        F  0.73651083  0.13396912  0.79816899    -0.19800
F703        F  0.74796117  0.17441436  0.79314194    -0.20100
F704        F  0.75187283  0.14468167  0.75979691    -0.22800
C705        C  0.82496243  0.32542942  0.23635313    -0.05600
C706        C  0.84028290  0.31303156  0.22522916     0.00300
C707        C  0.85387116  0.30315765  0.24319232    -0.08300
C708        C  0.85169112  0.30627572  0.27205191    -0.05600
C709        C  0.83641728  0.31883738  0.28320112     0.00300
C710        C  0.82288432  0.32887146  0.26517253    -0.08200
C711        C  0.80682392  0.34424574  0.27620270     0.62200
H712        H  0.81482430  0.33296832  0.22213486     0.12900
H713        H  0.86193414  0.29894208  0.28621897     0.12900
C714        C  0.87037339  0.28899152  0.23187295     0.62400
F715        F  0.79604607  0.35387849  0.25497070    -0.22700
F716        F  0.81309525  0.36507704  0.29174901    -0.20000
F717        F  0.79604206  0.32858810  0.29265802    -0.19700
F718        F  0.88092047  0.30588560  0.21645702    -0.19800
F719        F  0.86476911  0.26858919  0.21513054    -0.20100
F720        F  0.88113285  0.27896526  0.25290851    -0.22800
C721        C  0.76483100  0.25694834  0.02445875    -0.05600
C722        C  0.78370481  0.25380533  0.02175539     0.00300
C723        C  0.79063096  0.23474036  0.00339889    -0.08300
C724        C  0.77827397  0.21947305  0.98796544    -0.05600
C725        C  0.75939436  0.22258235  0.99067323     0.00300
C726        C  0.75246917  0.24169824  0.00899003    -0.08200
C727        C  0.73215318  0.24633422  0.01159934     0.62200
H728        H  0.75986948  0.27164411  0.03867341     0.12900
H729        H  0.78324851  0.20484441  0.97368311     0.12900
C730        C  0.81095927  0.23022330  0.00066725     0.62400
F731        F  0.72833957  0.26688359  0.02925044    -0.22700
F732        F  0.72378585  0.22434258  0.02199475    -0.20000
F733        F  0.72488123  0.25200497  0.98579420    -0.19700
F734        F  0.81824679  0.22422304  0.02637476    -0.19800
F735        F  0.81930586  0.25237095  0.99060690    -0.20100
F736        F  0.81479654  0.20994750  0.98267764    -0.22800
C737        C  0.00843150  0.47291028  0.52601380    -0.05600
C738        C  0.00007458  0.49497678  0.51464073     0.00300
C739        C  0.01108113  0.51545578  0.50432013    -0.08300
C740        C  0.03018271  0.51298944  0.50563357    -0.05600
C741        C  0.03854583  0.49079367  0.51668126     0.00300
C742        C  0.02754826  0.47058931  0.52762896    -0.08200
C743        C  0.03590301  0.44719914  0.54195250     0.62200
H744        H  0.99978921  0.45751455  0.53385554     0.12900
H745        H  0.03882026  0.52833082  0.49766665     0.12900
C746        C  0.00274012  0.53941250  0.49110347     0.62400
F747        F  0.02282103  0.43189317  0.55461733    -0.22700
F748        F  0.04802836  0.45541133  0.56220841    -0.20000
F749        F  0.04496405  0.43196874  0.52283829    -0.19700
F750        F  0.99316750  0.55335778  0.51075232    -0.19800
F751        F  0.99108421  0.53206971  0.46986533    -0.20100
F752        F  0.01586345  0.55571655  0.48005198    -0.22800
C753        C  0.25945377  0.76205271  0.02237583    -0.05600
C754        C  0.27821126  0.75726617  0.02073778     0.00300
C755        C  0.28479549  0.73770812  0.00270026    -0.08300
C756        C  0.27224996  0.72365871  0.98638026    -0.05600
C757        C  0.25349392  0.72826075  0.98821328     0.00300
C758        C  0.24687695  0.74769523  0.00636760    -0.08200
C759        C  0.22664754  0.75322482  0.00855227     0.62200
H760        H  0.25475322  0.77707041  0.03641301     0.12900
H761        H  0.27694600  0.70862693  0.97235413     0.12900
C762        C  0.30492799  0.73132276  0.00136803     0.62400
F763        F  0.22309721  0.77361392  0.02653190    -0.22700
F764        F  0.21768912  0.73142181  0.01827678    -0.20000
F765        F  0.21978433  0.75964060  0.98268995    -0.19700
F766        F  0.31080608  0.72297313  0.02714822    -0.19800
F767        F  0.31472276  0.75315629  0.99382345    -0.20100
F768        F  0.30851785  0.71189616  0.98222258    -0.22800
C769        C  0.21552603  0.66916336  0.73744621    -0.05600
C770        C  0.19991989  0.67744762  0.72317148     0.00300
C771        C  0.18454087  0.68605355  0.73833801    -0.08300
C772        C  0.18504324  0.68477991  0.76751257    -0.05600
C773        C  0.20055263  0.67615272  0.78174663     0.00300
C774        C  0.21617182  0.66843239  0.76663449    -0.08200
C775        C  0.23334968  0.65912560  0.78112233     0.62200
H776        H  0.22720965  0.66302131  0.72544159     0.12900
H777        H  0.17329839  0.69064327  0.77954602     0.12900
C778        C  0.16797277  0.69748139  0.72395526     0.62400
F779        F  0.24573050  0.64874722  0.76254124    -0.22700
F780        F  0.22914747  0.64007799  0.80030405    -0.20000
F781        F  0.24164339  0.67979115  0.79450926    -0.19700
F782        F  0.15874854  0.67834670  0.70946679    -0.19800
F783        F  0.17338484  0.71675977  0.70576240    -0.20100
F784        F  0.15596836  0.70841898  0.74275336    -0.22800
C785        C  0.35546423  0.79785884  0.23847356    -0.05600
C786        C  0.33908376  0.80378928  0.22486062     0.00300
C787        C  0.32357343  0.81076914  0.24066987    -0.08300
C788        C  0.32510329  0.81160020  0.26979747    -0.05600
C789        C  0.34157736  0.80617085  0.28336684     0.00300
C790        C  0.35697496  0.79869076  0.26761328    -0.08200
C791        C  0.37475430  0.79097414  0.28145611     0.62200
H792        H  0.36717067  0.79276817  0.22596487     0.12900
H793        H  0.31348646  0.81709459  0.28229821     0.12900
C794        C  0.30571339  0.81837354  0.22696169     0.62400
F795        F  0.38708199  0.78101669  0.26252844    -0.22700
F796        F  0.37149033  0.77209761  0.30124386    -0.20000
F797        F  0.38267340  0.81236215  0.29401292    -0.19700
F798        F  0.29814701  0.79707640  0.21374335    -0.19800
F799        F  0.30870263  0.83790560  0.20780689    -0.20100
F800        F  0.29317200  0.82739104  0.24609298    -0.22800
C801        C  0.25826285  0.75218999  0.52045998    -0.05600
C802        C  0.26165123  0.72536941  0.51949141     0.00300
C803        C  0.27604544  0.71591896  0.50272152    -0.08300
C804        C  0.28659004  0.73383859  0.48749719    -0.05600
C805        C  0.28325581  0.76069869  0.48854246     0.00300
C806        C  0.26860708  0.77006861  0.50487747    -0.08200
C807        C  0.26332347  0.79858303  0.50495565     0.62200
H808        H  0.24719974  0.75901938  0.53337376     0.12900
H809        H  0.29764454  0.72698371  0.47458580     0.12900
C810        C  0.28061834  0.68717031  0.50146059     0.62400
F811        F  0.24700850  0.80271288  0.51859639    -0.22700
F812        F  0.26133122  0.80730185  0.47796412    -0.20000
F813        F  0.27656398  0.81309922  0.51827552    -0.19700
F814        F  0.26662690  0.67367730  0.48869110    -0.19800
F815        F  0.28316162  0.67764537  0.52802323    -0.20100
F816        F  0.29637059  0.68257369  0.48652106    -0.22800
C817        C  0.02969477  0.50873656  0.02330099    -0.05600
C818        C  0.03868252  0.48892961  0.00875795     0.00300
C819        C  0.02838930  0.47002812  0.99409897    -0.08300
C820        C  0.00926064  0.47200571  0.99400969    -0.05600
C821        C  0.00028804  0.49213560  0.00807294     0.00300
C822        C  0.01055389  0.51040706  0.02365460    -0.08200
C823        C  0.00131660  0.53091071  0.04137582     0.62200
H824        H  0.03784903  0.52286502  0.03452321     0.12900
H825        H  0.00110274  0.45791748  0.98273804     0.12900
C826        C  0.03758636  0.44828128  0.97811107     0.62400
F827        F  0.01373142  0.54474543  0.05730391    -0.22700
F828        F  0.98907321  0.51915405  0.05919565    -0.20000
F829        F  0.99215541  0.54830226  0.02462334    -0.19700
F830        F  0.04706968  0.43251310  0.99625449    -0.19800
F831        F  0.04953786  0.45864851  0.95892513    -0.20100
F832        F  0.02511375  0.43293410  0.96396656    -0.22800
C833        C  0.76813008  0.72022110  0.50908931    -0.05600
C834        C  0.78147622  0.73306599  0.52495417     0.00300
C835        C  0.78337829  0.76044071  0.52241725    -0.08300
C836        C  0.77163851  0.77391426  0.50424621    -0.05600
C837        C  0.75835485  0.76104340  0.48829648     0.00300
C838        C  0.75637109  0.73370679  0.49096681    -0.08200
C839        C  0.74166619  0.71872973  0.47544230     0.62200
H840        H  0.76695432  0.69932387  0.51109358     0.12900
H841        H  0.77279824  0.79481018  0.50221322     0.12900
C842        C  0.79803690  0.77544319  0.53801663     0.62400
F843        F  0.73978874  0.69366305  0.48543352    -0.22700
F844        F  0.74608717  0.71710990  0.44763989    -0.20000
F845        F  0.72503252  0.73099834  0.47833617    -0.19700
F846        F  0.81478712  0.76373572  0.53422811    -0.19800
F847        F  0.79396971  0.77617029  0.56598007    -0.20100
F848        F  0.79941758  0.80084956  0.52883740    -0.22800
C849        C  0.82734002  0.66280194  0.77320086    -0.05600
C850        C  0.83955606  0.67831084  0.78833723     0.00300
C851        C  0.85161025  0.69515043  0.77419018    -0.08300
C852        C  0.85144652  0.69528931  0.74491679    -0.05600
C853        C  0.83936016  0.67953606  0.72975873     0.00300
C854        C  0.82695951  0.66321549  0.74397741    -0.08200
C855        C  0.81345864  0.64628667  0.72826894     0.62200
H856        H  0.81813660  0.65025347  0.78453867     0.12900
H857        H  0.86075107  0.70770423  0.73360472     0.12900
C858        C  0.86430993  0.71309435  0.79012106     0.62400
F859        F  0.80303466  0.63125663  0.74599608    -0.22700
F860        F  0.82264856  0.62978002  0.71049023    -0.20000
F861        F  0.80181539  0.66181162  0.71302076    -0.19700
F862        F  0.87626020  0.69858891  0.80596287    -0.19800
F863        F  0.85424215  0.72900347  0.80742264    -0.20100
F864        F  0.87439522  0.72874943  0.77255568    -0.22800
C865        C  0.68439426  0.79855946  0.24002465    -0.05600
C866        C  0.69705067  0.81546008  0.22784607     0.00300
C867        C  0.70860520  0.83077154  0.24485980    -0.08300
C868        C  0.70735753  0.82820357  0.27387608    -0.05600
C869        C  0.69479935  0.81116302  0.28606278     0.00300
C870        C  0.68306066  0.79614090  0.26906907    -0.08200
C871        C  0.66944705  0.77741675  0.28169589     0.62200
H872        H  0.67562599  0.78717486  0.22654253     0.12900
H873        H  0.71610351  0.83962581  0.28735704     0.12900
C874        C  0.72195097  0.84996542  0.23232460     0.62400
F875        F  0.65963309  0.76413668  0.26156187    -0.22700
F876        F  0.65727924  0.79093205  0.29811565    -0.20000
F877        F  0.67853026  0.75938908  0.29783341    -0.19700
F878        F  0.71267638  0.86747570  0.21578726    -0.19800
F879        F  0.73456481  0.83683226  0.21635270    -0.20100
F880        F  0.73126786  0.86386978  0.25252777    -0.22800
C881        C  0.77066382  0.76547683  0.01319004    -0.05600
C882        C  0.75556269  0.75433974  0.02639634     0.00300
C883        C  0.75172407  0.72757192  0.02249506    -0.08300
C884        C  0.76326030  0.71279639  0.00525638    -0.05600
C885        C  0.77833831  0.72397289  0.99195137     0.00300
C886        C  0.78237408  0.75063554  0.99635137    -0.08200
C887        C  0.79941640  0.76308723  0.98445709     0.62200
H888        H  0.77334195  0.78595839  0.01652892     0.12900
H889        H  0.76055668  0.69232503  0.00190102     0.12900
C890        C  0.73531270  0.71482926  0.03595665     0.62400
F891        F  0.80163355  0.78844009  0.99356619    -0.22700
F892        F  0.79848166  0.76349551  0.95582311    -0.20000
F893        F  0.81456344  0.74909243  0.99263623    -0.19700
F894        F  0.71970291  0.72858190  0.02951625    -0.19800
F895        F  0.73759396  0.71438995  0.06443820    -0.20100
F896        F  0.73290500  0.68948261  0.02694689    -0.22800
loop_ 
_geom_bond_atom_site_label_1 
_geom_bond_atom_site_label_2 
_geom_bond_distance 
_geom_bond_site_symmetry_2 
_ccdc_geom_bond_type 
N1            N2   1.323       .  A
N1            C5   1.346       .  A
N1           Cu9   2.081       .  S
N2            C3   1.346       .  A
N2           Cu8   2.076       .  S
C3            C4   1.381       .  A
C3            H6   1.082       .  S
C4            C5   1.382       .  A
C4          C866   1.476       .  S
C5            H7   1.082       .  S
Cu8          N11   2.076       .  S
Cu9          N19   2.081       .  S
Cu10         N12   2.082       .  S
Cu10         N18   2.082       .  S
N11          N12   1.323       .  A
N11          C15   1.346       .  A
N12          C13   1.347       .  A
C13          C14   1.383       .  A
C13          H16   1.082       .  S
C14          C15   1.382       .  A
C14         C398   1.470       .  S
C15          H17   1.082       .  S
N18          N19   1.323       .  A
N18          C22   1.346       .  A
N19          C20   1.347       .  A
C20          C21   1.385       .  A
C20          H23   1.081       .  S
C21          C22   1.384       .  A
C21         C882   1.482       .  S
C22          H24   1.082       .  S
N25          N26   1.323       .  A
N25          C29   1.347       .  A
N25         Cu33   2.082       .  S
N26          C27   1.346       .  A
N26         Cu32   2.077       .  S
C27          C28   1.383       .  A
C27          H30   1.082       .  S
C28          C29   1.383       .  A
C28         C850   1.478       .  S
C29          H31   1.082       .  S
Cu32         N35   2.077       .  S
Cu33         N43   2.082       .  S
Cu34         N36   2.087       .  S
Cu34         N42   2.087       .  S
N35          N36   1.324       .  A
N35          C39   1.346       .  A
N36          C37   1.348       .  A
C37          C38   1.384       .  A
C37          H40   1.082       .  S
C38          C39   1.381       .  A
C38         C134   1.471       .  S
C39          H41   1.082       .  S
N42          N43   1.323       .  A
N42          C46   1.348       .  A
N43          C44   1.346       .  A
C44          C45   1.384       .  A
C44          H47   1.081       .  S
C45          C46   1.385       .  A
C45         C885   1.484       .  S
C46          H48   1.082   1_556  S
N49          N50   1.323       .  A
N49          C53   1.347       .  A
N49         Cu57   2.083       .  S
N50          C51   1.346       .  A
N50         Cu56   2.081       .  S
C51          C52   1.383       .  A
C51          H54   1.082       .  S
C52          C53   1.384       .  A
C52         C853   1.479       .  S
C53          H55   1.082       .  S
Cu56         N59   2.080       .  S
Cu57         N67   2.084       .  S
Cu58         N60   2.096       .  S
Cu58         N66   2.096       .  S
N59          N60   1.324       .  A
N59          C63   1.347       .  A
N60          C61   1.349       .  A
C61          C62   1.387       .  A
C61          H64   1.082       .  S
C62          C63   1.383       .  A
C62         C278   1.477       .  S
C63          H65   1.082       .  S
N66          N67   1.323       .  A
N66          C70   1.348       .  A
N67          C68   1.347       .  A
C68          C69   1.387       .  A
C68          H71   1.080       .  S
C69          C70   1.388       .  A
C69         C834   1.492       .  S
C70          H72   1.082       .  S
N73          N74   1.323       .  A
N73          C77   1.347       .  A
N73         Cu81   2.083       .  S
N74          C75   1.346       .  A
N74         Cu80   2.076       .  S
C75          C76   1.382       .  A
C75          H78   1.082       .  S
C76          C77   1.383       .  A
C76         C869   1.476       .  S
C77          H79   1.082       .  S
Cu80         N83   2.076       .  S
Cu81         N91   2.084       .  S
Cu82         N84   2.090       .  S
Cu82         N90   2.091       .  S
N83          N84   1.323       .  A
N83          C87   1.346       .  A
N84          C85   1.348       .  A
C85          C86   1.385       .  A
C85          H88   1.082       .  S
C86          C87   1.382       .  A
C86         C532   1.473       .  S
C87          H89   1.082       .  S
N90          N91   1.323       .  A
N90          C94   1.348       .  A
N91          C92   1.347       .  A
C92          C93   1.387       .  A
C92          H95   1.080       .  S
C93          C94   1.387       .  A
C93         C837   1.490       .  S
C94          H96   1.082       .  S
N97          N98   1.322       .  A
N97         C101   1.347       .  A
N97        Cu105   2.082       .  S
N98          C99   1.344       .  A
N98        Cu104   2.066   1_556  S
C99         C100   1.380       .  A
C99         H102   1.082       .  S
C100        C101   1.384       .  A
C100        C230   1.468       .  S
C101        H103   1.082       .  S
Cu104       N107   2.066       .  S
Cu105       N115   2.082   1_556  S
Cu106       N108   2.084       .  S
Cu106       N114   2.085       .  S
N107        N108   1.323       .  A
N107        C111   1.345       .  A
N108        C109   1.347       .  A
C109        C110   1.384       .  A
C109        H112   1.082       .  S
C110        C111   1.379       .  A
C110        C446   1.467       .  S
C111        H113   1.082       .  S
N114        N115   1.324       .  A
N114        C118   1.348       .  A
N115        C116   1.346   1_554  A
C116        C117   1.382   1_556  A
C116        H119   1.082       .  S
C117        C118   1.384       .  A
C117        C818   1.480       .  S
C118        H120   1.082       .  S
N121        N122   1.322       .  A
N121        C125   1.344       .  A
N121       Cu129   2.069       .  S
N122        C123   1.346       .  A
N122       Cu128   2.073       .  S
C123        C124   1.382       .  A
C123        H126   1.082       .  S
C124        C125   1.381       .  A
C124        C302   1.466       .  S
C125        H127   1.082       .  S
Cu128       N131   2.074   1_554  S
Cu129       N139   2.069       .  S
Cu130       N132   2.090       .  S
Cu130       N138   2.090       .  S
N131        N132   1.324       .  A
N131        C135   1.346       .  A
N132        C133   1.347       .  A
C133        C134   1.384       .  A
C133        H136   1.082       .  S
C134        C135   1.381       .  A
C135        H137   1.082       .  S
N138        N139   1.323   1_556  A
N138        C142   1.348       .  A
N139        C140   1.345       .  A
C140        C141   1.381       .  A
C140        H143   1.082       .  S
C141        C142   1.386   1_554  A
C141        C821   1.480   1_655  S
C142        H144   1.082       .  S
N145        N146   1.322       .  A
N145        C149   1.346       .  A
N145       Cu153   2.079       .  S
N146        C147   1.345       .  A
N146       Cu152   2.074       .  S
C147        C148   1.384       .  A
C147        H150   1.081       .  S
C148        C149   1.385       .  A
C148        C789   1.481       .  S
C149        H151   1.082       .  S
Cu152       N155   2.074       .  S
Cu153       N163   2.080       .  S
Cu154       N156   2.095       .  S
Cu154       N162   2.096       .  S
N155        N156   1.323       .  A
N155        C159   1.346       .  A
N156        C157   1.349       .  A
C157        C158   1.386       .  A
C157        H160   1.082       .  S
C158        C159   1.381       .  A
C158        C556   1.474       .  S
C159        H161   1.082       .  S
N162        N163   1.323       .  A
N162        C166   1.348       .  A
N163        C164   1.346       .  A
C164        C165   1.385       .  A
C164        H167   1.082       .  S
C165        C166   1.389       .  A
C165        C805   1.490       .  S
C166        H168   1.080       .  S
N169        N170   1.322       .  A
N169        C173   1.347       .  A
N169       Cu177   2.085       .  S
N170        C171   1.343       .  A
N170       Cu176   2.066       .  S
C171        C172   1.381       .  A
C171        H174   1.081       .  S
C172        C173   1.387       .  A
C172        C770   1.480       .  S
C173        H175   1.082       .  S
Cu176       N179   2.065       .  S
Cu177       N187   2.086       .  S
Cu178       N180   2.090       .  S
Cu178       N186   2.090       .  S
N179        N180   1.322       .  A
N179        C183   1.344       .  A
N180        C181   1.348       .  A
C181        C182   1.386       .  A
C181        H184   1.082       .  S
C182        C183   1.380       .  A
C182        C244   1.472       .  S
C183        H185   1.082       .  S
N186        N187   1.324       .  A
N186        C190   1.347       .  A
N187        C188   1.347       .  A
C188        C189   1.385       .  A
C188        H191   1.082       .  S
C189        C190   1.386       .  A
C189        C802   1.488       .  S
C190        H192   1.081       .  S
N193        N194   1.322       .  A
N193        C197   1.346       .  A
N193       Cu201   2.077       .  S
N194        C195   1.344       .  A
N194       Cu200   2.071       .  S
C195        C196   1.382       .  A
C195        H198   1.082       .  S
C196        C197   1.385       .  A
C196        C786   1.480       .  S
C197        H199   1.081       .  S
Cu200       N203   2.071       .  S
Cu201       N211   2.077       .  S
Cu202       N204   2.086       .  S
Cu202       N210   2.087       .  S
N203        N204   1.323       .  A
N203        C207   1.345       .  A
N204        C205   1.348       .  A
C205        C206   1.385       .  A
C205        H208   1.082       .  S
C206        C207   1.381       .  A
C206        C422   1.471       .  S
C207        H209   1.082       .  S
N210        N211   1.324       .  A
N210        C214   1.347       .  A
N211        C212   1.346       .  A
C212        C213   1.381       .  A
C212        H215   1.082       .  S
C213        C214   1.383       .  A
C213        C754   1.476       .  S
C214        H216   1.082       .  S
N217        N218   1.322       .  A
N217        C221   1.344       .  A
N217       Cu225   2.069       .  S
N218        C219   1.346       .  A
N218       Cu224   2.078       .  S
C219        C220   1.384       .  A
C219        H222   1.082       .  S
C220        C221   1.382       .  A
C220        C773   1.477       .  S
C221        H223   1.081       .  S
Cu224       N227   2.077       .  S
Cu225       N235   2.070       .  S
Cu226       N228   2.079       .  S
Cu226       N234   2.080       .  S
N227        N228   1.323       .  A
N227        C231   1.346       .  A
N228        C229   1.346       .  A
C229        C230   1.382       .  A
C229        H232   1.082       .  S
C230        C231   1.381       .  A
C231        H233   1.082       .  S
N234        N235   1.322       .  A
N234        C238   1.346       .  A
N235        C236   1.345       .  A
C236        C237   1.381       .  A
C236        H239   1.082       .  S
C237        C238   1.383       .  A
C237        C757   1.475       .  S
C238        H240   1.082       .  S
N241        N242   1.323       .  A
N241        C245   1.346       .  A
N241       Cu249   2.087       .  S
N242        C243   1.347       .  A
N242       Cu248   2.074       .  S
C243        C244   1.382       .  A
C243        H246   1.082       .  S
C244        C245   1.384       .  A
C245        H247   1.082       .  S
Cu248       N251   2.074       .  S
Cu249       N259   2.088       .  S
Cu250       N252   2.084       .  S
Cu250       N258   2.085       .  S
N251        N252   1.323       .  A
N251        C255   1.345       .  A
N252        C253   1.347       .  A
C253        C254   1.383       .  A
C253        H256   1.082       .  S
C254        C255   1.381       .  A
C254        C494   1.470       .  S
C255        H257   1.082       .  S
N258        N259   1.323       .  A
N258        C262   1.347       .  A
N259        C260   1.348       .  A
C260        C261   1.386       .  A
C260        H263   1.082       .  S
C261        C262   1.386       .  A
C261        C741   1.487       .  S
C262        H264   1.081       .  S
N265        N266   1.324       .  A
N265        C269   1.348       .  A
N265       Cu273   2.089       .  S
N266        C267   1.347       .  A
N266       Cu272   2.085       .  S
C267        C268   1.383       .  A
C267        H270   1.082       .  S
C268        C269   1.384       .  A
C268        C350   1.474       .  S
C269        H271   1.082       .  S
Cu272       N275   2.084       .  S
Cu273       N283   2.089       .  S
Cu274       N276   2.088       .  S
Cu274       N282   2.088       .  S
N275        N276   1.323       .  A
N275        C279   1.348       .  A
N276        C277   1.348       .  A
C277        C278   1.385       .  A
C277        H280   1.082       .  S
C278        C279   1.384       .  A
C279        H281   1.082       .  S
N282        N283   1.324       .  A
N282        C286   1.347       .  A
N283        C284   1.348       .  A
C284        C285   1.386       .  A
C284        H287   1.082       .  S
C285        C286   1.385       .  A
C285        C738   1.487   1_655  S
C286        H288   1.081       .  S
N289        N290   1.322       .  A
N289        C293   1.346       .  A
N289       Cu297   2.081       .  S
N290        C291   1.345       .  A
N290       Cu296   2.071       .  S
C291        C292   1.382       .  A
C291        H294   1.082       .  S
C292        C293   1.384       .  A
C292        C706   1.478       .  S
C293        H295   1.082       .  S
Cu296       N299   2.070       .  S
Cu297       N307   2.081       .  S
Cu298       N300   2.079       .  S
Cu298       N306   2.080       .  S
N299        N300   1.323       .  A
N299        C303   1.344       .  A
N300        C301   1.346       .  A
C301        C302   1.382       .  A
C301        H304   1.082       .  S
C302        C303   1.380       .  A
C303        H305   1.082       .  S
N306        N307   1.323       .  A
N306        C310   1.347       .  A
N307        C308   1.346       .  A
C308        C309   1.382       .  A
C308        H311   1.082       .  S
C309        C310   1.383       .  A
C309        C722   1.478       .  S
C310        H312   1.082       .  S
N313        N314   1.321       .  A
N313        C317   1.347       .  A
N313       Cu321   2.078       .  S
N314        C315   1.345       .  A
N314       Cu320   2.074       .  S
C315        C316   1.384       .  A
C315        H318   1.082       .  S
C316        C317   1.386       .  A
C316        C690   1.483       .  S
C317        H319   1.081       .  S
Cu320       N323   2.074       .  S
Cu321       N331   2.078       .  S
Cu322       N324   2.091       .  S
Cu322       N330   2.092       .  S
N323        N324   1.323       .  A
N323        C327   1.345       .  A
N324        C325   1.348       .  A
C325        C326   1.385       .  A
C325        H328   1.082       .  S
C326        C327   1.380       .  A
C326        C388   1.471       .  S
C327        H329   1.082       .  S
N330        N331   1.324       .  A
N330        C334   1.349       .  A
N331        C332   1.346       .  A
C332        C333   1.381       .  A
C332        H335   1.082       .  S
C333        C334   1.385       .  A
C333        C725   1.480       .  S
C334        H336   1.082   1_556  S
N337        N338   1.322       .  A
N337        C341   1.346       .  A
N337       Cu345   2.079       .  S
N338        C339   1.346       .  A
N338       Cu344   2.078       .  S
C339        C340   1.383       .  A
C339        H342   1.082       .  S
C340        C341   1.384       .  A
C340        C709   1.480       .  S
C341        H343   1.082       .  S
Cu344       N347   2.078       .  S
Cu345       N355   2.079       .  S
Cu346       N348   2.092       .  S
Cu346       N354   2.092       .  S
N347        N348   1.324       .  A
N347        C351   1.346       .  A
N348        C349   1.349       .  A
C349        C350   1.385       .  A
C349        H352   1.082       .  S
C350        C351   1.382       .  A
C351        H353   1.082       .  S
N354        N355   1.323       .  A
N354        C358   1.348       .  A
N355        C356   1.346       .  A
C356        C357   1.383       .  A
C356        H359   1.082       .  S
C357        C358   1.385       .  A
C357        C677   1.482       .  S
C358        H360   1.082       .  S
N361        N362   1.322       .  A
N361        C365   1.347       .  A
N361       Cu369   2.083       .  S
N362        C363   1.345       .  A
N362       Cu368   2.073       .  S
C363        C364   1.383       .  A
C363        H366   1.081       .  S
C364        C365   1.385       .  A
C364        C693   1.481       .  S
C365        H367   1.082       .  S
Cu368       N371   2.072       .  S
Cu369       N379   2.083       .  S
Cu370       N372   2.088       .  S
Cu370       N378   2.088       .  S
N371        N372   1.323       .  A
N371        C375   1.344       .  A
N372        C373   1.349       .  A
C373        C374   1.385       .  A
C373        H376   1.082       .  S
C374        C375   1.380       .  A
C374        C542   1.471       .  S
C375        H377   1.082       .  S
N378        N379   1.324       .  A
N378        C382   1.347       .  A
N379        C380   1.347       .  A
C380        C381   1.384       .  A
C380        H383   1.081       .  S
C381        C382   1.385       .  A
C381        C674   1.483       .  S
C382        H384   1.082       .  S
N385        N386   1.324       .  A
N385        C389   1.348       .  A
N385       Cu393   2.092       .  S
N386        C387   1.346       .  A
N386       Cu392   2.075   1_545  S
C387        C388   1.381       .  A
C387        H390   1.082       .  S
C388        C389   1.385       .  A
C389        H391   1.082       .  S
Cu392       N395   2.074   1_556  S
Cu393       N403   2.093       .  S
Cu394       N396   2.079       .  S
Cu394       N402   2.080       .  S
N395        N396   1.322       .  A
N395        C399   1.346       .  A
N396        C397   1.346       .  A
C397        C398   1.383       .  A
C397        H400   1.082       .  S
C398        C399   1.382       .  A
C399        H401   1.082       .  S
N402        N403   1.323   1_564  A
N402        C406   1.346       .  A
N403        C404   1.349       .  A
C404        C405   1.388   1_546  A
C404        H407   1.081       .  S
C405        C406   1.384       .  A
C405        C658   1.486       .  S
C406        H408   1.082       .  S
N409        N410   1.323       .  A
N409        C413   1.347       .  A
N409       Cu417   2.083       .  S
N410        C411   1.345       .  A
N410       Cu416   2.072   1_546  S
C411        C412   1.380       .  A
C411        H414   1.082       .  S
C412        C413   1.383       .  A
C412        C470   1.468       .  S
C413        H415   1.082       .  S
Cu416       N419   2.072       .  S
Cu417       N427   2.084   1_545  S
Cu418       N420   2.087       .  S
Cu418       N426   2.087       .  S
N419        N420   1.323       .  A
N419        C423   1.346       .  A
N420        C421   1.347       .  A
C421        C422   1.384       .  A
C421        H424   1.082       .  S
C422        C423   1.382       .  A
C423        H425   1.082       .  S
N426        N427   1.323   1_554  A
N426        C430   1.348       .  A
N427        C428   1.346   1_565  A
C428        C429   1.385   1_546  A
C428        H431   1.082       .  S
C429        C430   1.387       .  A
C429        C661   1.486       .  S
C430        H432   1.081       .  S
N433        N434   1.322       .  A
N433        C437   1.345       .  A
N433       Cu441   2.068       .  S
N434        C435   1.345       .  A
N434       Cu440   2.072       .  S
C435        C436   1.382       .  A
C435        H438   1.082       .  S
C436        C437   1.381       .  A
C436        C626   1.473       .  S
C437        H439   1.082       .  S
Cu440       N443   2.072       .  S
Cu441       N451   2.069       .  S
Cu442       N444   2.084       .  S
Cu442       N450   2.084       .  S
N443        N444   1.324       .  A
N443        C447   1.345       .  A
N444        C445   1.347       .  A
C445        C446   1.383       .  A
C445        H448   1.082       .  S
C446        C447   1.379       .  A
C447        H449   1.082       .  S
N450        N451   1.323       .  A
N450        C454   1.347       .  A
N451        C452   1.344       .  A
C452        C453   1.381       .  A
C452        H455   1.082       .  S
C453        C454   1.385       .  A
C453        C645   1.478       .  S
C454        H456   1.082       .  S
N457        N458   1.321       .  A
N457        C461   1.345       .  A
N457       Cu465   2.067       .  S
N458        C459   1.345       .  A
N458       Cu464   2.075       .  S
C459        C460   1.384       .  A
C459        H462   1.082       .  S
C460        C461   1.383       .  A
C460        C610   1.478       .  S
C461        H463   1.081       .  S
Cu464       N467   2.074       .  S
Cu465       N475   2.068       .  S
Cu466       N468   2.085       .  S
Cu466       N474   2.085       .  S
N467        N468   1.324       .  A
N467        C471   1.345       .  A
N468        C469   1.347       .  A
C469        C470   1.384       .  A
C469        H472   1.082       .  S
C470        C471   1.380       .  A
C471        H473   1.082       .  S
N474        N475   1.323       .  A
N474        C478   1.347       .  A
N475        C476   1.344       .  A
C476        C477   1.381       .  A
C476        H479   1.082       .  S
C477        C478   1.385       .  A
C477        C642   1.477       .  S
C478        H480   1.082   1_556  S
N481        N482   1.323       .  A
N481        C485   1.345       .  A
N481       Cu489   2.074       .  S
N482        C483   1.345       .  A
N482       Cu488   2.076       .  S
C483        C484   1.382       .  A
C483        H486   1.082       .  S
C484        C485   1.382       .  A
C484        C629   1.475       .  S
C485        H487   1.082       .  S
Cu488       N491   2.076       .  S
Cu489       N499   2.074       .  S
Cu490       N492   2.078       .  S
Cu490       N498   2.078       .  S
N491        N492   1.323       .  A
N491        C495   1.346       .  A
N492        C493   1.346       .  A
C493        C494   1.383       .  A
C493        H496   1.082       .  S
C494        C495   1.382       .  A
C495        H497   1.082       .  S
N498        N499   1.322       .  A
N498        C502   1.346       .  A
N499        C500   1.345       .  A
C500        C501   1.384       .  A
C500        H503   1.082       .  S
C501        C502   1.384       .  A
C501        C594   1.481       .  S
C502        H504   1.081       .  S
N505        N506   1.323       .  A
N505        C509   1.348       .  A
N505       Cu513   2.083       .  S
N506        C507   1.345       .  A
N506       Cu512   2.081       .  S
C507        C508   1.383       .  A
C507        H510   1.082       .  S
C508        C509   1.384       .  A
C508        C613   1.480       .  S
C509        H511   1.082       .  S
Cu512       N515   2.080       .  S
Cu513       N523   2.083       .  S
Cu514       N516   2.076       .  S
Cu514       N522   2.076       .  S
N515        N516   1.322       .  A
N515        C519   1.347       .  A
N516        C517   1.346       .  A
C517        C518   1.383       .  A
C517        H520   1.082       .  S
C518        C519   1.384       .  A
C518        C566   1.473       .  S
C519        H521   1.082       .  S
N522        N523   1.323       .  A
N522        C526   1.344       .  A
N523        C524   1.347       .  A
C524        C525   1.386       .  A
C524        H527   1.082       .  S
C525        C526   1.383       .  A
C525        C597   1.483       .  S
C526        H528   1.080       .  S
N529        N530   1.323       .  A
N529        C533   1.347       .  A
N529       Cu537   2.086       .  S
N530        C531   1.347       .  A
N530       Cu536   2.081       .  S
C531        C532   1.383       .  A
C531        H534   1.082       .  S
C532        C533   1.384       .  A
C533        H535   1.082       .  S
Cu536       N539   2.080   1_565  S
Cu537       N547   2.086       .  S
Cu538       N540   2.079       .  S
Cu538       N546   2.079       .  S
N539        N540   1.323       .  A
N539        C543   1.347       .  A
N540        C541   1.346       .  A
C541        C542   1.383       .  A
C541        H544   1.082       .  S
C542        C543   1.383       .  A
C543        H545   1.082       .  S
N546        N547   1.324   1_545  A
N546        C550   1.347       .  A
N547        C548   1.347       .  A
C548        C549   1.384       .  A
C548        H551   1.082       .  S
C549        C550   1.382   1_565  A
C549        C578   1.479       .  S
C550        H552   1.082       .  S
N553        N554   1.323       .  A
N553        C557   1.347       .  A
N553       Cu561   2.085       .  S
N554        C555   1.348       .  A
N554       Cu560   2.085   1_565  S
C555        C556   1.383       .  A
C555        H558   1.082       .  S
C556        C557   1.383       .  A
C557        H559   1.082       .  S
Cu560       N563   2.084       .  S
Cu561       N571   2.085       .  S
Cu562       N564   2.080       .  S
Cu562       N570   2.080       .  S
N563        N564   1.323       .  A
N563        C567   1.347       .  A
N564        C565   1.347       .  A
C565        C566   1.383       .  A
C565        H568   1.082       .  S
C566        C567   1.384       .  A
C567        H569   1.082       .  S
N570        N571   1.323   1_545  A
N570        C574   1.347       .  A
N571        C572   1.347       .  A
C572        C573   1.384       .  A
C572        H575   1.082       .  S
C573        C574   1.383   1_565  A
C573        C581   1.481       .  S
C574        H576   1.082       .  S
C577        C578   1.402       .  A
C577        C582   1.409       .  A
C577        H584   1.083       .  S
C578        C579   1.415   1_565  A
C579        C580   1.408       .  A
C579        C586   1.517       .  S
C580        C581   1.403   1_545  A
C580        H585   1.083       .  S
C581        C582   1.417       .  A
C582        C583   1.518       .  S
C583        F587   1.384       .  S
C583        F588   1.383       .  S
C583        F589   1.382       .  S
C586        F590   1.382   1_545  S
C586        F591   1.383       .  S
C586        F592   1.384       .  S
C593        C594   1.402       .  A
C593        C598   1.407       .  A
C593        H600   1.083       .  S
C594        C595   1.418       .  A
C595        C596   1.409       .  A
C595        C602   1.519       .  S
C596        C597   1.404       .  A
C596        H601   1.083       .  S
C597        C598   1.419       .  A
C598        C599   1.519       .  S
C599        F603   1.385       .  S
C599        F604   1.381       .  S
C599        F605   1.383       .  S
C602        F606   1.384       .  S
C602        F607   1.381       .  S
C602        F608   1.385       .  S
C609        C610   1.401       .  A
C609        C614   1.406       .  A
C609        H616   1.083       .  S
C610        C611   1.417       .  A
C611        C612   1.409       .  A
C611        C618   1.519       .  S
C612        C613   1.403       .  A
C612        H617   1.083       .  S
C613        C614   1.416       .  A
C614        C615   1.518       .  S
C615        F619   1.385       .  S
C615        F620   1.383       .  S
C615        F621   1.381       .  S
C618        F622   1.381       .  S
C618        F623   1.383       .  S
C618        F624   1.385       .  S
C625        C626   1.402       .  A
C625        C630   1.407       .  A
C625        H632   1.083       .  S
C626        C627   1.415       .  A
C627        C628   1.406       .  A
C627        C634   1.518       .  S
C628        C629   1.402       .  A
C628        H633   1.083       .  S
C629        C630   1.414       .  A
C630        C631   1.517       .  S
C631        F635   1.385       .  S
C631        F636   1.382       .  S
C631        F637   1.384       .  S
C634        F638   1.383       .  S
C634        F639   1.382       .  S
C634        F640   1.384       .  S
C641        C642   1.401   1_554  A
C641        C646   1.406       .  A
C641        H648   1.083       .  S
C642        C643   1.417       .  A
C643        C644   1.408   1_556  A
C643        C650   1.518       .  S
C644        C645   1.403       .  A
C644        H649   1.083       .  S
C645        C646   1.416       .  A
C646        C647   1.518       .  S
C647        F651   1.384       .  S
C647        F652   1.381       .  S
C647        F653   1.383       .  S
C650        F654   1.383       .  S
C650        F655   1.381       .  S
C650        F656   1.385       .  S
C657        C658   1.404   1_556  A
C657        C662   1.410       .  A
C657        H664   1.083       .  S
C658        C659   1.418   1_565  A
C659        C660   1.410       .  A
C659        C666   1.518       .  S
C660        C661   1.404   1_545  A
C660        H665   1.083       .  S
C661        C662   1.418   1_554  A
C662        C663   1.519       .  S
C663        F667   1.385       .  S
C663        F668   1.383       .  S
C663        F669   1.381   1_556  S
C666        F670   1.381       .  S
C666        F671   1.383       .  S
C666        F672   1.385       .  S
C673        C674   1.403       .  A
C673        C678   1.409       .  A
C673        H680   1.083       .  S
C674        C675   1.418       .  A
C675        C676   1.410       .  A
C675        C682   1.518       .  S
C676        C677   1.402       .  A
C676        H681   1.083       .  S
C677        C678   1.417       .  A
C678        C679   1.518       .  S
C679        F683   1.385       .  S
C679        F684   1.383       .  S
C679        F685   1.382       .  S
C682        F686   1.381       .  S
C682        F687   1.383       .  S
C682        F688   1.385       .  S
C689        C690   1.403       .  A
C689        C694   1.407       .  A
C689        H696   1.083       .  S
C690        C691   1.419       .  A
C691        C692   1.409       .  A
C691        C698   1.519       .  S
C692        C693   1.403       .  A
C692        H697   1.083       .  S
C693        C694   1.416       .  A
C694        C695   1.519       .  S
C695        F699   1.384       .  S
C695        F700   1.381       .  S
C695        F701   1.383       .  S
C698        F702   1.383       .  S
C698        F703   1.381       .  S
C698        F704   1.385       .  S
C705        C706   1.402       .  A
C705        C710   1.407       .  A
C705        H712   1.083       .  S
C706        C707   1.415       .  A
C707        C708   1.408       .  A
C707        C714   1.518       .  S
C708        C709   1.403       .  A
C708        H713   1.083       .  S
C709        C710   1.417       .  A
C710        C711   1.518       .  S
C711        F715   1.385       .  S
C711        F716   1.383       .  S
C711        F717   1.381       .  S
C714        F718   1.382       .  S
C714        F719   1.383       .  S
C714        F720   1.384       .  S
C721        C722   1.402       .  A
C721        C726   1.409       .  A
C721        H728   1.083       .  S
C722        C723   1.415       .  A
C723        C724   1.408   1_554  A
C723        C730   1.517       .  S
C724        C725   1.402       .  A
C724        H729   1.083       .  S
C725        C726   1.416   1_556  A
C726        C727   1.517       .  S
C727        F731   1.385       .  S
C727        F732   1.382       .  S
C727        F733   1.383   1_554  S
C730        F734   1.383       .  S
C730        F735   1.382   1_554  S
C730        F736   1.385   1_554  S
C737        C738   1.404       .  A
C737        C742   1.411       .  A
C737        H744   1.083   1_455  S
C738        C739   1.418       .  A
C739        C740   1.410       .  A
C739        C746   1.518       .  S
C740        C741   1.403       .  A
C740        H745   1.083       .  S
C741        C742   1.418       .  A
C742        C743   1.519       .  S
C743        F747   1.385       .  S
C743        F748   1.384       .  S
C743        F749   1.381       .  S
C746        F750   1.381   1_455  S
C746        F751   1.383   1_455  S
C746        F752   1.384       .  S
C753        C754   1.402       .  A
C753        C758   1.408       .  A
C753        H760   1.083       .  S
C754        C755   1.415       .  A
C755        C756   1.407   1_554  A
C755        C762   1.517       .  S
C756        C757   1.401       .  A
C756        H761   1.083       .  S
C757        C758   1.415   1_556  A
C758        C759   1.517       .  S
C759        F763   1.384       .  S
C759        F764   1.383       .  S
C759        F765   1.383   1_554  S
C762        F766   1.383       .  S
C762        F767   1.382   1_554  S
C762        F768   1.385   1_554  S
C769        C770   1.403       .  A
C769        C774   1.407       .  A
C769        H776   1.083       .  S
C770        C771   1.418       .  A
C771        C772   1.407       .  A
C771        C778   1.519       .  S
C772        C773   1.401       .  A
C772        H777   1.083       .  S
C773        C774   1.417       .  A
C774        C775   1.519       .  S
C775        F779   1.385       .  S
C775        F780   1.383       .  S
C775        F781   1.382       .  S
C778        F782   1.381       .  S
C778        F783   1.383       .  S
C778        F784   1.385       .  S
C785        C786   1.403       .  A
C785        C790   1.408       .  A
C785        H792   1.083       .  S
C786        C787   1.418       .  A
C787        C788   1.407       .  A
C787        C794   1.519       .  S
C788        C789   1.402       .  A
C788        H793   1.083       .  S
C789        C790   1.417       .  A
C790        C791   1.518       .  S
C791        F795   1.385       .  S
C791        F796   1.383       .  S
C791        F797   1.381       .  S
C794        F798   1.381       .  S
C794        F799   1.383       .  S
C794        F800   1.384       .  S
C801        C802   1.404       .  A
C801        C806   1.411       .  A
C801        H808   1.083       .  S
C802        C803   1.418       .  A
C803        C804   1.411       .  A
C803        C810   1.519       .  S
C804        C805   1.405       .  A
C804        H809   1.083       .  S
C805        C806   1.419       .  A
C806        C807   1.519       .  S
C807        F811   1.384       .  S
C807        F812   1.384       .  S
C807        F813   1.380       .  S
C810        F814   1.381       .  S
C810        F815   1.383       .  S
C810        F816   1.384       .  S
C817        C818   1.403       .  A
C817        C822   1.409       .  A
C817        H824   1.083       .  S
C818        C819   1.416   1_554  A
C819        C820   1.409       .  A
C819        C826   1.518       .  S
C820        C821   1.403   1_556  A
C820        H825   1.083       .  S
C821        C822   1.416       .  A
C822        C823   1.518       .  S
C823        F827   1.384       .  S
C823        F828   1.384   1_455  S
C823        F829   1.381   1_455  S
C826        F830   1.382       .  S
C826        F831   1.383       .  S
C826        F832   1.385       .  S
C833        C834   1.404       .  A
C833        C838   1.411       .  A
C833        H840   1.083       .  S
C834        C835   1.421       .  A
C835        C836   1.411       .  A
C835        C842   1.519       .  S
C836        C837   1.404       .  A
C836        H841   1.083       .  S
C837        C838   1.420       .  A
C838        C839   1.519       .  S
C839        F843   1.385       .  S
C839        F844   1.381       .  S
C839        F845   1.384       .  S
C842        F846   1.383       .  S
C842        F847   1.381       .  S
C842        F848   1.385       .  S
C849        C850   1.401       .  A
C849        C854   1.408       .  A
C849        H856   1.083       .  S
C850        C851   1.415       .  A
C851        C852   1.410       .  A
C851        C858   1.516       .  S
C852        C853   1.403       .  A
C852        H857   1.083       .  S
C853        C854   1.416       .  A
C854        C855   1.517       .  S
C855        F859   1.384       .  S
C855        F860   1.383       .  S
C855        F861   1.382       .  S
C858        F862   1.383       .  S
C858        F863   1.383       .  S
C858        F864   1.384       .  S
C865        C866   1.402       .  A
C865        C870   1.408       .  A
C865        H872   1.083       .  S
C866        C867   1.415       .  A
C867        C868   1.407       .  A
C867        C874   1.517       .  S
C868        C869   1.402       .  A
C868        H873   1.083       .  S
C869        C870   1.414       .  A
C870        C871   1.516       .  S
C871        F875   1.385       .  S
C871        F876   1.383       .  S
C871        F877   1.383       .  S
C874        F878   1.383       .  S
C874        F879   1.382       .  S
C874        F880   1.385       .  S
C881        C882   1.402       .  A
C881        C886   1.409   1_554  A
C881        H888   1.083       .  S
C882        C883   1.417       .  A
C883        C884   1.410       .  A
C883        C890   1.518       .  S
C884        C885   1.403   1_554  A
C884        H889   1.083       .  S
C885        C886   1.418       .  A
C886        C887   1.519       .  S
C887        F891   1.385       .  S
C887        F892   1.381       .  S
C887        F893   1.383       .  S
C890        F894   1.383       .  S
C890        F895   1.382       .  S
C890        F896   1.384       .  S
