geometry optimzed in LAMMPS
_audit_creation_date              2020-12-01 
_audit_creation_method            'lammps2cif' 
_symmetry_space_group_name_H-M    'P1' 
_symmetry_Int_Tables_number       1 
_symmetry_cell_setting            triclinic 
loop_ 
_symmetry_equiv_pos_as_xyz 
  x,y,z 
_cell_length_a                    39.05343325 
_cell_length_b                    38.70531333046107 
_cell_length_c                    38.829263145304104 
_cell_angle_alpha                 90.48266785726129 
_cell_angle_beta                  88.878955986448 
_cell_angle_gamma                 89.88207453664033 
loop_ 
_atom_site_label 
_atom_site_type_symbol 
_atom_site_fract_x 
_atom_site_fract_y 
_atom_site_fract_z 
_atom_site_charge 
C1          C  0.78347726  0.50887164  0.04231678     0.86500
C2          C  0.76026917  0.53785863  0.05746127    -0.53800
C3          C  0.74183431  0.55532022  0.03309405     0.09400
C4          C  0.75052759  0.54323304  0.99572901     0.20400
C5          C  0.75777487  0.48684122  0.02165664    -0.54500
C6          C  0.73984263  0.50476188  0.99710349     0.09500
C7          C  0.80595626  0.52638998  0.01562971    -0.54000
C8          C  0.78976683  0.54371200  0.99138075     0.10100
H9          H  0.75274669  0.53874919  0.08447797     0.14600
H10         H  0.73846628  0.55864618  0.97534665     0.00300
H11         H  0.75042023  0.46143161  0.03051191     0.14900
H12         H  0.83380420  0.52473951  0.01532261     0.14700
C13         C  0.54531140  0.74013877  0.97895618     0.86500
C14         C  0.52005016  0.75700532  0.95356604    -0.53800
C15         C  0.49376681  0.77574127  0.96923051     0.09400
C16         C  0.49295498  0.77093365  0.00884891     0.20400
C17         C  0.55533743  0.77068026  0.00289730    -0.54500
C18         C  0.52767453  0.78651079  0.01870751     0.09500
C19         C  0.52321685  0.71736093  0.00187067    -0.54000
C20         C  0.49547575  0.73204800  0.01618812     0.10100
H21         H  0.52462368  0.75604004  0.92604250     0.14600
H22         H  0.47093161  0.78304313  0.02273504     0.00300
H23         H  0.58075640  0.78142060  0.00453429     0.14900
H24         H  0.52776076  0.69015306  0.00564976     0.14700
C25         C  0.03216620  0.56098977  0.69068934     0.86500
C26         C  0.00211180  0.57225129  0.71487775    -0.53800
C27         C  0.99028120  0.54669870  0.73679121     0.09400
C28         C  0.00848483  0.51159270  0.72987388     0.20400
C29         C  0.05826437  0.54672822  0.71628167    -0.54500
C30         C  0.04630636  0.52122213  0.73817929     0.09500
C31         C  0.01941081  0.53012943  0.67142290    -0.54000
C32         C  0.00663938  0.50458782  0.69045903     0.10100
H33         H  0.99626032  0.59924980  0.71978464     0.14600
H34         H  0.99774220  0.48957001  0.74443617     0.00300
H35         H  0.08034537  0.56244211  0.72167698     0.14900
H36         H  0.01961679  0.52872633  0.64332295     0.14700
C37         C  0.51443400  0.94071818  0.70491532     0.86500
C38         C  0.53352627  0.96136890  0.73331063    -0.53800
C39         C  0.51335448  0.98463175  0.75183442     0.09400
C40         C  0.47584908  0.98443019  0.73963578     0.20400
C41         C  0.48478031  0.92341756  0.72564886    -0.54500
C42         C  0.46584024  0.94630553  0.74605194     0.09500
C43         C  0.49713956  0.96831325  0.68387839    -0.54000
C44         C  0.47720309  0.99052263  0.70098385     0.10100
H45         H  0.55815618  0.95340103  0.74230223     0.14600
H46         H  0.45803309  0.00362574  0.75131229     0.00300
H47         H  0.48335283  0.89562394  0.72878368     0.14900
H48         H  0.49875546  0.97003620  0.65624447     0.14700
C49         C  0.71348715  0.00008700  0.46655990     0.86500
C50         C  0.73885756  0.02589395  0.44952885    -0.53800
C51         C  0.75514520  0.04783167  0.47279626     0.09400
C52         C  0.74279140  0.04099642  0.51076392     0.20400
C53         C  0.73695471  0.98166612  0.49282284    -0.54500
C54         C  0.75395108  0.00313286  0.51496281     0.09500
C55         C  0.68936261  0.02291667  0.48721562    -0.54000
C56         C  0.70322986  0.04228615  0.51182621     0.10100
H57         H  0.74811000  0.02152595  0.42347591     0.14600
H58         H  0.75242894  0.05909954  0.53046141     0.00300
H59         H  0.74663308  0.95576170  0.48778023     0.14900
H60         H  0.66161456  0.01966253  0.48635318     0.14700
C61         C  0.02871848  0.81492465  0.43414624     0.86500
C62         C  0.04600709  0.78344194  0.45157216    -0.53800
C63         C  0.02487728  0.76523947  0.47389933     0.09400
C64         C  0.98862862  0.78111244  0.47662279     0.20400
C65         C  0.99683544  0.79883494  0.41714485    -0.54500
C66         C  0.97746384  0.77824041  0.43870330     0.09500
C67         C  0.01439141  0.83628448  0.46352433    -0.54000
C68         C  0.99350790  0.81993408  0.48557420     0.10100
H69         H  0.07031424  0.77289427  0.44287454     0.14600
H70         H  0.97071035  0.76812082  0.49470858     0.00300
H71         H  0.99342605  0.79912433  0.38950818     0.14900
H72         H  0.01945678  0.86385918  0.46611516     0.14700
C73         C  0.22406604  0.47564880  0.01334893     0.86500
C74         C  0.25033586  0.45693448  0.98975326    -0.53800
C75         C  0.27415427  0.47783641  0.97322576     0.09400
C76         C  0.26613206  0.51677984  0.98052392     0.20400
C77         C  0.24682203  0.49800485  0.03735278    -0.54500
C78         C  0.27055197  0.51831225  0.02012324     0.09500
C79         C  0.20694473  0.50212062  0.99144838    -0.54000
C80         C  0.22756205  0.52327442  0.97399933     0.10100
H81         H  0.25369478  0.42972022  0.99361469     0.14600
H82         H  0.28175346  0.53550546  0.96580335     0.00300
H83         H  0.24608629  0.49613153  0.06510645     0.14900
H84         H  0.17929456  0.50468867  0.98977800     0.14700
O85         O  0.04294983  0.56972954  0.95196165    -0.71800
O86         O  0.97066240  0.55354992  0.01873012    -0.72000
O87         O  0.03893893  0.54846986  0.01831057    -0.71900
O88         O  0.97337517  0.57579650  0.95175401    -0.71900
O89         O  0.97006402  0.52309227  0.93284860    -0.71800
O90         O  0.03549859  0.49492741  0.00184854    -0.71800
O91         O  0.96656677  0.50083350  0.99999084    -0.71800
O92         O  0.04064081  0.51619882  0.93541583    -0.72000
V93         V  0.00632233  0.56082561  0.98465582     1.35200
V94         V  0.00307171  0.50983370  0.96765224     1.35200
C95         C  0.05467508  0.54555205  0.93263513     0.77500
C96         C  0.95779805  0.52368656  0.02216563     0.77500
C97         C  0.04808074  0.51726209  0.02220427     0.77400
C98         C  0.96059539  0.55455125  0.93053239     0.77300
N99         N  0.93641912  0.56668915  0.90468477    -0.03500
C100        C  0.94793958  0.58478841  0.87634677    -0.00900
C101        C  0.92947067  0.61488269  0.87215983    -0.23800
C102        C  0.90431959  0.61516476  0.89646973    -0.24000
C103        C  0.90801696  0.58533929  0.91515582    -0.01000
H104        H  0.93081160  0.63213882  0.85036461     0.12800
H105        H  0.88289875  0.63298000  0.89754486     0.12800
C106        C  0.01021149  0.57017069  0.26246988     0.86500
C107        C  0.03932663  0.55391297  0.24080980    -0.53800
C108        C  0.02874131  0.52894074  0.21812138     0.09400
C109        C  0.99110341  0.51709597  0.22571128     0.20400
C110        C  0.98136392  0.57804666  0.23579042    -0.54500
C111        C  0.97129918  0.54986420  0.21678829     0.09500
C112        C  0.99641797  0.54036264  0.28321782    -0.54000
C113        C  0.98606022  0.51272157  0.26531941     0.10100
H114        H  0.06442740  0.56566964  0.23879110     0.14600
H115        H  0.98380306  0.49371914  0.21084037     0.00300
H116        H  0.97227544  0.60368807  0.22972042     0.14900
H117        H  0.99153921  0.54208556  0.31084916     0.14700
N118        N  0.93793745  0.51437877  0.05297868    -0.03500
C119        C  0.95793891  0.50852389  0.08069426    -0.00900
C120        C  0.96235081  0.47307828  0.08412554    -0.23800
C121        C  0.93670570  0.45795617  0.06585260    -0.24000
C122        C  0.91911564  0.48476843  0.05083097    -0.01000
H123        H  0.97445997  0.46058098  0.10557801     0.12800
H124        H  0.92674335  0.43242342  0.07112457     0.12800
N125        N  0.08188999  0.55204673  0.90709519    -0.03500
C126        C  0.07146944  0.56465777  0.87613069    -0.00900
C127        C  0.08337158  0.59820927  0.87228944    -0.23800
C128        C  0.10626013  0.60408803  0.89772881    -0.24000
C129        C  0.10737071  0.57429045  0.91677973    -0.01000
H130        H  0.08208308  0.61349856  0.84913350     0.12800
H131        H  0.12509237  0.62457930  0.89761100     0.12800
O132        O  0.48000291  0.53763601  0.05554058    -0.71800
O133        O  0.54909796  0.47423169  0.02052244    -0.72000
O134        O  0.54811408  0.54187053  0.03827511    -0.71900
O135        O  0.48185704  0.47017338  0.03773390    -0.71900
O136        O  0.46879392  0.48239269  0.98516603    -0.71800
O137        O  0.53446032  0.55683849  0.98666573    -0.71800
O138        O  0.53629373  0.48892835  0.96846621    -0.71800
O139        O  0.46627799  0.55019889  0.00334890    -0.72000
V140        V  0.51453596  0.50635611  0.03697341     1.35200
V141        V  0.50178490  0.51935301  0.98689302     1.35200
C142        C  0.46053715  0.55401774  0.03538679     0.77500
C143        C  0.55433705  0.47083080  0.98834123     0.77500
C144        C  0.55301669  0.56167850  0.01277249     0.77400
C145        C  0.46376446  0.46399451  0.01166965     0.77300
N146        N  0.57797663  0.58973267  0.01472166    -0.03500
C147        C  0.59738238  0.58888535  0.04349782    -0.00900
C148        C  0.58621441  0.61385944  0.06666208    -0.23800
C149        C  0.56363665  0.63408903  0.04921609    -0.24000
C150        C  0.56486087  0.62239767  0.01518902    -0.01000
H151        H  0.59859957  0.62130549  0.09028059     0.12800
H152        H  0.55652501  0.65995060  0.05755525     0.12800
C153        C  0.50541685  0.22770140  0.97512810     0.86500
C154        C  0.47586201  0.25014517  0.99099924    -0.53800
C155        C  0.48570200  0.27117578  0.01892265     0.09400
C156        C  0.52408532  0.26457769  0.02780042     0.20400
C157        C  0.53327593  0.25470132  0.96708716    -0.54500
C158        C  0.54113785  0.27631029  0.99356857     0.09500
C159        C  0.51638108  0.20719598  0.00511806    -0.54000
C160        C  0.52843309  0.22485578  0.03157459     0.10100
H161        H  0.45262728  0.25311115  0.97685194     0.14600
H162        H  0.53502221  0.27710220  0.05068634     0.00300
H163        H  0.53982780  0.26123585  0.94062355     0.14900
H164        H  0.51696008  0.17897584  0.00463413     0.14700
O165        O  0.49272545  0.04949297  0.01942410    -0.71800
O166        O  0.45004692  0.98766806  0.95319733    -0.72000
O167        O  0.45916209  0.98833166  0.02259940    -0.71900
O168        O  0.48305664  0.05030366  0.95000112    -0.71900
O169        O  0.52985954  0.02156302  0.93935151    -0.71800
O170        O  0.50809753  0.96217769  0.01628817    -0.71800
O171        O  0.49766042  0.95912611  0.94723020    -0.71800
O172        O  0.54112351  0.02349219  0.00901409    -0.72000
V173        V  0.47219109  0.01842161  0.98597317     1.35200
V174        V  0.51832954  0.99227449  0.97808743     1.35200
C175        C  0.52444336  0.04656745  0.02586043     0.77500
C176        C  0.46633349  0.96208107  0.93967420     0.77500
C177        C  0.47944209  0.96489248  0.03217700     0.77400
C178        C  0.51012335  0.04651582  0.93188368     0.77300
N179        N  0.44924426  0.93620875  0.91795876    -0.03500
C180        C  0.42763543  0.94587520  0.89208873    -0.00900
C181        C  0.39601799  0.93047179  0.89717238    -0.23800
C182        C  0.39960539  0.90677496  0.92234558    -0.24000
C183        C  0.43281469  0.90912888  0.93374181    -0.01000
H184        H  0.37533528  0.92949344  0.87905220     0.12800
H185        H  0.38196959  0.88561693  0.92627470     0.12800
C186        C  0.51510382  0.97964962  0.26744075     0.86500
C187        C  0.48549868  0.96239182  0.24730865    -0.53800
C188        C  0.46781453  0.98412848  0.22627384     0.09400
C189        C  0.47920046  0.02169883  0.23034724     0.20400
C190        C  0.53631825  0.99717062  0.23870593    -0.54500
C191        C  0.51756720  0.01924284  0.21845754     0.09500
C192        C  0.49948790  0.00947132  0.28724699    -0.54000
C193        C  0.47888220  0.03036553  0.26949157     0.10100
H194        H  0.48505633  0.93469023  0.24269726     0.14600
H195        H  0.46323485  0.03965478  0.21548162     0.00300
H196        H  0.56256063  0.98982660  0.23264022     0.14900
H197        H  0.50018680  0.01065436  0.31533415     0.14700
N198        N  0.46891352  0.94083525  0.05888846    -0.03500
C199        C  0.44443007  0.95031126  0.08270450    -0.00900
C200        C  0.41686421  0.92802279  0.08076135    -0.23800
C201        C  0.42714286  0.90116064  0.06001791    -0.24000
C202        C  0.46027693  0.90827198  0.04926689    -0.01000
H203        H  0.39543267  0.92671853  0.09882284     0.12800
H204        H  0.41480400  0.87617830  0.05943540     0.12800
N205        N  0.51753584  0.06969971  0.90324858    -0.03500
C206        C  0.53367994  0.06197283  0.87252755    -0.00900
C207        C  0.53464167  0.09082687  0.85175395    -0.23800
C208        C  0.51599438  0.11579882  0.86808304    -0.24000
C209        C  0.50621227  0.10293258  0.89986292    -0.01000
H210        H  0.54384656  0.09209843  0.82529434     0.12800
H211        H  0.51262159  0.14198340  0.85909913     0.12800
O212        O  0.01903835  0.48484991  0.49153723    -0.71800
O213        O  0.00559363  0.56410260  0.43312971    -0.72000
O214        O  0.03926971  0.55328634  0.49174339    -0.71900
O215        O  0.98624724  0.49686615  0.43131762    -0.71900
O216        O  0.94122747  0.50624657  0.46363531    -0.71800
O217        O  0.99304416  0.57052718  0.51877482    -0.71800
O218        O  0.95782989  0.57468666  0.46074925    -0.71800
O219        O  0.97583569  0.50183914  0.52326507    -0.72000
V220        V  0.01181619  0.52493356  0.46270636     1.35200
V221        V  0.96788825  0.53794164  0.49111753     1.35200
C222        C  0.99898186  0.47948966  0.51721903     0.77500
C223        C  0.97895075  0.58274975  0.43700966     0.77500
C224        C  0.02505496  0.57368990  0.51343033     0.77400
C225        C  0.95486891  0.49106291  0.43748506     0.77300
N226        N  0.04472560  0.60133279  0.52897546    -0.03500
C227        C  0.05978223  0.62508420  0.50783863    -0.00900
C228        C  0.09382720  0.62934255  0.51579144    -0.23800
C229        C  0.09942954  0.61027696  0.54443927    -0.24000
C230        C  0.06881624  0.59424244  0.55287717    -0.01000
H231        H  0.11075268  0.64933700  0.50615969     0.12800
H232        H  0.12151083  0.61303733  0.56063566     0.12800
O233        O  0.53322753  0.00072445  0.45063975    -0.71800
O234        O  0.46708234  0.04573233  0.51120748    -0.72000
O235        O  0.53240308  0.02023533  0.51767398    -0.71900
O236        O  0.46745107  0.02577731  0.44437128    -0.71900
O237        O  0.44462833  0.97761953  0.46117392    -0.71800
O238        O  0.51340404  0.96932845  0.53041564    -0.71800
O239        O  0.44885987  0.99591810  0.52867397    -0.71800
O240        O  0.51023860  0.95127599  0.46314761    -0.72000
V241        V  0.49968255  0.02213869  0.48120432     1.35200
V242        V  0.47974888  0.97443415  0.49538350     1.35200
C243        C  0.53323832  0.96815108  0.44684932     0.77500
C244        C  0.44647271  0.02860388  0.53019421     0.77500
C245        C  0.53421967  0.99355243  0.53654403     0.77400
C246        C  0.44352751  0.00367892  0.44157452     0.77300
N247        N  0.55704592  0.99222279  0.56598212    -0.03500
C248        C  0.57526645  0.02155023  0.57285763    -0.00900
C249        C  0.56494470  0.03566050  0.60393916    -0.23800
C250        C  0.54381452  0.01196055  0.61897963    -0.24000
C251        C  0.54268094  0.98329194  0.59713404    -0.01000
H252        H  0.57693753  0.05696616  0.61729331     0.12800
H253        H  0.53828367  0.01213224  0.64631366     0.12800
C254        C  0.21293913  0.04008346  0.45986165     0.86500
C255        C  0.23692915  0.06124711  0.48336508    -0.53800
C256        C  0.25531707  0.04159992  0.50637342     0.09400
C257        C  0.24442817  0.00281322  0.50565097     0.20400
C258        C  0.23762505  0.01234955  0.44446311    -0.54500
C259        C  0.25440452  0.99218372  0.46819690     0.09500
C260        C  0.19005043  0.02061555  0.48424057    -0.54000
C261        C  0.20494425  0.00175513  0.50851883     0.10100
H262        H  0.24264010  0.08818003  0.47832881     0.14600
H263        H  0.25556754  0.98653774  0.52571976     0.00300
H264        H  0.24919471  0.01636138  0.41940006     0.14900
H265        H  0.16250791  0.02157136  0.48181011     0.14700
O266        O  0.03392991  0.00417157  0.49365981    -0.71800
O267        O  0.96629358  0.07686282  0.49768056    -0.72000
O268        O  0.96863158  0.01073744  0.52060230    -0.71900
O269        O  0.03149925  0.07067525  0.47127543    -0.71900
O270        O  0.00917120  0.05408539  0.42321373    -0.71800
O271        O  0.94988855  0.99049485  0.47229394    -0.71800
O272        O  0.94446822  0.05638464  0.45077811    -0.71800
O273        O  0.01462797  0.98765306  0.44434985    -0.72000
V274        V  0.99964849  0.04012482  0.49497826     1.35200
V275        V  0.97995403  0.02250075  0.44865532     1.35200
C276        C  0.03702042  0.98462039  0.46735015     0.77500
C277        C  0.94357268  0.07874293  0.47480832     0.77500
C278        C  0.94830137  0.99057313  0.50499537     0.77400
C279        C  0.03087696  0.07296351  0.43865847     0.77300
N280        N  0.92502059  0.96781441  0.52425409    -0.03500
C281        C  0.89935514  0.98139678  0.54513608    -0.00900
C282        C  0.90300838  0.96924238  0.57852988    -0.23800
C283        C  0.92806895  0.94487866  0.57760252    -0.24000
C284        C  0.93961798  0.94292387  0.54405247    -0.01000
H285        H  0.88534428  0.97228340  0.60013020     0.12800
H286        H  0.93303848  0.92649892  0.59778460     0.12800
C287        C  0.96992895  0.25354209  0.49039761     0.86500
C288        C  0.00166561  0.27579931  0.49814271    -0.53800
C289        C  0.01448695  0.29478325  0.47078081     0.09400
C290        C  0.99434721  0.28749447  0.43747154     0.20400
C291        C  0.94442548  0.27996103  0.47562050    -0.54500
C292        C  0.95732933  0.29936690  0.44857201     0.09500
C293        C  0.97948056  0.23140958  0.45960906    -0.54000
C294        C  0.99287279  0.24765790  0.43243374     0.10100
H295        H  0.00783101  0.28133394  0.52466150     0.14600
H296        H  0.00579090  0.29958086  0.41437648     0.00300
H297        H  0.91985505  0.28550702  0.48784075     0.14900
H298        H  0.97749342  0.20345373  0.45954592     0.14700
N299        N  0.91890880  0.10686740  0.47420328    -0.03500
C300        C  0.89321146  0.10582437  0.45079219    -0.00900
C301        C  0.89427448  0.13513350  0.43068127    -0.23800
C302        C  0.91817537  0.15639298  0.44469790    -0.24000
C303        C  0.93072297  0.13985063  0.47328991    -0.01000
H304        H  0.87538095  0.14336875  0.41244881     0.12800
H305        H  0.92004623  0.18374247  0.43957444     0.12800
N306        N  0.06718379  0.96275229  0.46150472    -0.03500
C307        C  0.09823895  0.97671353  0.46947049    -0.00900
C308        C  0.11833165  0.97881860  0.43974977    -0.23800
C309        C  0.10149260  0.96202711  0.41416696    -0.24000
C310        C  0.07181042  0.94917542  0.42894756    -0.01000
H311        H  0.14541939  0.98433319  0.43851394     0.12800
H312        H  0.11356056  0.95291557  0.39043041     0.12800
N313        N  0.42179962  0.04608893  0.55329791    -0.03500
C314        C  0.39855505  0.06939790  0.54090179    -0.00900
C315        C  0.40079628  0.10033033  0.55876625    -0.23800
C316        C  0.42264506  0.09517044  0.58518223    -0.24000
C317        C  0.43374153  0.06136651  0.58249194    -0.01000
H318        H  0.38324541  0.12193259  0.55718605     0.12800
H319        H  0.42553823  0.11236651  0.60706151     0.12800
N320        N  0.99935012  0.44736970  0.53679842    -0.03500
C321        C  0.99794894  0.41619518  0.51995504    -0.00900
C322        C  0.97322433  0.39529711  0.53488591    -0.23800
C323        C  0.96011264  0.41253122  0.56275846    -0.24000
C324        C  0.97729010  0.44348466  0.56453127    -0.01000
H325        H  0.96915983  0.36817637  0.52936814     0.12800
H326        H  0.94404378  0.40130875  0.58274428     0.12800
N327        N  0.05435814  0.09560493  0.41923316    -0.03500
C328        C  0.08232771  0.08078925  0.40280513    -0.00900
C329        C  0.08168933  0.08754939  0.36781498    -0.23800
C330        C  0.05547619  0.10993941  0.36270131    -0.24000
C331        C  0.04086447  0.11683467  0.39458283    -0.01000
H332        H  0.10160958  0.08190844  0.34881984     0.12800
H333        H  0.05211998  0.12486641  0.33954006     0.12800
N334        N  0.55828561  0.95040916  0.42459354    -0.03500
C335        C  0.58541799  0.93354030  0.43869730    -0.00900
C336        C  0.58514814  0.89909262  0.42855587    -0.23800
C337        C  0.56012917  0.89544487  0.40492670    -0.24000
C338        C  0.54601282  0.92774952  0.40081705    -0.01000
H339        H  0.60548296  0.88041566  0.43157116     0.12800
H340        H  0.55823207  0.87380077  0.38722006     0.12800
N341        N  0.97130934  0.61087709  0.41378882    -0.03500
C342        C  0.94534092  0.63278875  0.42344096    -0.00900
C343        C  0.91639749  0.62432641  0.40509470    -0.23800
C344        C  0.92747881  0.60348184  0.37840104    -0.24000
C345        C  0.96258481  0.60077594  0.38171607    -0.01000
H346        H  0.89280942  0.63903624  0.40465569     0.12800
H347        H  0.91339749  0.59917390  0.35504795     0.12800
N348        N  0.57985562  0.44717036  0.97405985    -0.03500
C349        C  0.60500125  0.46033944  0.95316708    -0.00900
C350        C  0.60589488  0.44358333  0.92162190    -0.23800
C351        C  0.58318537  0.41702806  0.92396400    -0.24000
C352        C  0.56890020  0.41860229  0.95677499    -0.01000
H353        H  0.62549567  0.44617157  0.90170420     0.12800
H354        H  0.58149495  0.39572058  0.90583595     0.12800
N355        N  0.54119507  0.06712478  0.05271283    -0.03500
C356        C  0.55838471  0.04812334  0.07645956    -0.00900
C357        C  0.59301055  0.05483872  0.07467840    -0.23800
C358        C  0.59718172  0.08183136  0.05302207    -0.24000
C359        C  0.56477175  0.09176109  0.04293058    -0.01000
H360        H  0.61209740  0.04651489  0.09268416     0.12800
H361        H  0.62008572  0.09748058  0.05268158     0.12800
N362        N  0.43292681  0.57642476  0.04871829    -0.03500
C363        C  0.40586443  0.56244342  0.06706724    -0.00900
C364        C  0.40240066  0.57840147  0.09881339    -0.23800
C365        C  0.42443421  0.60556026  0.09882192    -0.24000
C366        C  0.44156373  0.60528306  0.06721508    -0.01000
H367        H  0.38140676  0.57508898  0.11712020     0.12800
H368        H  0.42353083  0.62630410  0.11766498     0.12800
N369        N  0.07338519  0.50853253  0.04811831    -0.03500
C370        C  0.07588512  0.53252637  0.07384370    -0.00900
C371        C  0.10442976  0.55315094  0.06821872    -0.23800
C372        C  0.12327903  0.53707216  0.04287253    -0.24000
C373        C  0.10633500  0.50640561  0.03598102    -0.01000
H374        H  0.11438610  0.57282871  0.08523697     0.12800
H375        H  0.15032224  0.54179784  0.03843386     0.12800
N376        N  0.93530686  0.46765164  0.41571350    -0.03500
C377        C  0.91483240  0.44307676  0.43032183    -0.00900
C378        C  0.88241318  0.44498205  0.41698341    -0.23800
C379        C  0.88414608  0.46766519  0.39028763    -0.24000
C380        C  0.91743202  0.47988855  0.38847464    -0.01000
H381        H  0.86222172  0.42614150  0.42058061     0.12800
H382        H  0.86528280  0.46890319  0.37030566     0.12800
N383        N  0.41412083  0.01020273  0.41965850    -0.03500
C384        C  0.38184248  0.01130606  0.43422639    -0.00900
C385        C  0.36503213  0.04101342  0.42460191    -0.23800
C386        C  0.38573792  0.05774205  0.40182638    -0.24000
C387        C  0.41461922  0.03762537  0.39741460    -0.01000
H388        H  0.33815650  0.04677601  0.42898508     0.12800
H389        H  0.37773507  0.07866583  0.38545952     0.12800
N390        N  0.43648098  0.43864210  0.01387286    -0.03500
C391        C  0.40467048  0.45171282  0.02103995    -0.00900
C392        C  0.39371032  0.44094744  0.05335316    -0.23800
C393        C  0.41637430  0.41692530  0.06418402    -0.24000
C394        C  0.44057981  0.41380316  0.03820157    -0.01000
H395        H  0.36826536  0.44328770  0.06396423     0.12800
H396        H  0.41152397  0.39863159  0.08464747     0.12800
C397        C  0.02994206  0.15364103  0.40060222    -0.06100
C398        C  0.99765110  0.16424373  0.38926050    -0.17300
C399        C  0.98770902  0.19924886  0.39053425     0.11100
C400        C  0.00901989  0.22420506  0.40617174    -0.06100
C401        C  0.04287286  0.21453962  0.41270972    -0.17300
C402        C  0.05381946  0.17992176  0.40903295     0.11100
S403        S  0.94587231  0.21063827  0.37549146    -0.32300
S404        S  0.09870298  0.17026515  0.41328341    -0.32300
H405        H  0.10956120  0.20404114  0.42097220     0.29100
H406        H  0.95110627  0.24657930  0.37695331     0.29100
H407        H  0.98016048  0.14519821  0.37907285     0.19700
H408        H  0.05980334  0.23352378  0.42387102     0.19700
C409        C  0.95821515  0.22841242  0.51891763    -0.06100
C410        C  0.92304387  0.22095637  0.52087388    -0.17300
C411        C  0.91178367  0.18727636  0.51354052     0.11100
C412        C  0.93636326  0.16154425  0.50467145    -0.06100
C413        C  0.96990696  0.16665317  0.51578285    -0.17300
C414        C  0.98052201  0.20010439  0.52573451     0.11100
S415        S  0.86665668  0.17900433  0.50861034    -0.32300
S416        S  0.02513724  0.20733531  0.53448581    -0.32300
H417        H  0.03399371  0.17232706  0.53821308     0.29100
H418        H  0.85508065  0.21070771  0.52253956     0.29100
H419        H  0.90458838  0.24177178  0.52165884     0.19700
H420        H  0.98876206  0.14645335  0.51149069     0.19700
C421        C  0.02667121  0.39831357  0.50123338    -0.06100
C422        C  0.04418877  0.37318383  0.52030460    -0.17300
C423        C  0.04698847  0.33884275  0.50800010     0.11100
C424        C  0.03104635  0.32971731  0.47681556    -0.06100
C425        C  0.02441112  0.35701606  0.45406744    -0.17300
C426        C  0.02281629  0.39127952  0.46602646     0.11100
S427        S  0.07085688  0.30741237  0.53182885    -0.32300
S428        S  0.01369271  0.42551803  0.43685523    -0.32300
H429        H  0.01747785  0.40600606  0.40627779     0.29100
H430        H  0.08661866  0.33146080  0.55375965     0.29100
H431        H  0.05058276  0.37886469  0.54676803     0.19700
H432        H  0.01756379  0.35195058  0.42781492     0.19700
C433        C  0.94398914  0.33562259  0.44235040    -0.06100
C434        C  0.92838138  0.35450942  0.46990021    -0.17300
C435        C  0.91947361  0.38953787  0.46699378     0.11100
C436        C  0.92759317  0.40740311  0.43656989    -0.06100
C437        C  0.94150410  0.38852092  0.40845688    -0.17300
C438        C  0.94906699  0.35299661  0.41071098     0.11100
S439        S  0.89605479  0.40972770  0.50227424    -0.32300
S440        S  0.96213900  0.32997553  0.37201541    -0.32300
H441        H  0.97152669  0.35927433  0.35281793     0.29100
H442        H  0.90947526  0.44304070  0.49727128     0.29100
H443        H  0.92346409  0.34240265  0.49446622     0.19700
H444        H  0.94475503  0.40134074  0.38398228     0.19700
C445        C  0.18713665  0.05960797  0.43681028    -0.06100
C446        C  0.16588907  0.08405280  0.45458290    -0.17300
C447        C  0.13072345  0.08855221  0.44714577     0.11100
C448        C  0.11646728  0.07153930  0.41835526    -0.06100
C449        C  0.13829955  0.04956073  0.39892890    -0.17300
C450        C  0.17263491  0.04370618  0.40724323     0.11100
S451        S  0.10414511  0.11355155  0.47669287    -0.32300
S452        S  0.19571809  0.01536127  0.37814941    -0.32300
H453        H  0.22245549  0.03925660  0.37324675     0.29100
H454        H  0.13002919  0.12363910  0.49932510     0.29100
H455        H  0.17555240  0.09574971  0.47784116     0.19700
H456        H  0.12836586  0.03636615  0.37653033     0.19700
C457        C  0.11689117  0.97035649  0.50242712    -0.06100
C458        C  0.14127678  0.94328100  0.50180793    -0.17300
C459        C  0.17363514  0.94796530  0.51637691     0.11100
C460        C  0.18157776  0.98035200  0.53069011    -0.06100
C461        C  0.15328478  0.99920113  0.54424158    -0.17300
C462        C  0.12154550  0.99694152  0.52726505     0.11100
S463        S  0.20667639  0.91664785  0.50716717    -0.32300
S464        S  0.09182725  0.03243617  0.53124773    -0.32300
H465        H  0.10703942  0.04856938  0.55969088     0.29100
H466        H  0.22968219  0.93047318  0.53105245     0.29100
H467        H  0.13768367  0.92115248  0.48517402     0.19700
H468        H  0.15863919  0.02234389  0.55902704     0.19700
C469        C  0.36307607  0.06003445  0.52975141    -0.06100
C470        C  0.34132270  0.04254409  0.55308931    -0.17300
C471        C  0.30592389  0.03891142  0.54772897     0.11100
C472        C  0.29111479  0.05172147  0.51734638    -0.06100
C473        C  0.31253930  0.07118074  0.49504478    -0.17300
C474        C  0.34760916  0.07638291  0.50159941     0.11100
S475        S  0.28078920  0.02011222  0.58220291    -0.32300
S476        S  0.37085442  0.10666125  0.47496910    -0.32300
H477        H  0.40268299  0.08975870  0.47700255     0.29100
H478        H  0.24993218  0.03670828  0.57410346     0.29100
H479        H  0.35140679  0.03393992  0.57720008     0.19700
H480        H  0.30219282  0.08229585  0.47198158     0.19700
C481        C  0.28907557  0.97622271  0.45973928    -0.06100
C482        C  0.31404598  0.97447068  0.48538152    -0.17300
C483        C  0.34902282  0.97614662  0.47675448     0.11100
C484        C  0.35936610  0.98113655  0.44237800    -0.06100
C485        C  0.33534938  0.97214198  0.41711984    -0.17300
C486        C  0.30031322  0.96879130  0.42563482     0.11100
S487        S  0.38007462  0.97399480  0.50984887    -0.32300
S488        S  0.27061969  0.95561075  0.39296428    -0.32300
H489        H  0.29517118  0.95014628  0.36646766     0.29100
H490        H  0.35744477  0.96395935  0.53654195     0.29100
H491        H  0.30691538  0.97461677  0.51225958     0.19700
H492        H  0.34264600  0.97339926  0.39029319     0.19700
C493        C  0.54375204  0.03753713  0.11061460    -0.06100
C494        C  0.52316591  0.06120175  0.12941228    -0.17300
C495        C  0.51690420  0.05764130  0.16499943     0.11100
C496        C  0.52886329  0.02807009  0.18227937    -0.06100
C497        C  0.54919563  0.00421541  0.16325099    -0.17300
C498        C  0.55724457  0.00893903  0.12829481     0.11100
S499        S  0.49703423  0.09384042  0.18721733    -0.32300
S500        S  0.58644603  0.97822833  0.10818138    -0.32300
H501        H  0.57457656  0.98237896  0.07448923     0.29100
H502        H  0.51238033  0.08777823  0.21909705     0.29100
H503        H  0.51421006  0.08414231  0.11715984     0.19700
H504        H  0.55865561  0.98110149  0.17530061     0.19700
C505        C  0.45290520  0.96238408  0.11827798    -0.06100
C506        C  0.42762280  0.98058107  0.13756304    -0.17300
C507        C  0.43020514  0.98559644  0.17336058     0.11100
C508        C  0.45869292  0.97237484  0.19079304    -0.06100
C509        C  0.48342019  0.95361812  0.17171821    -0.17300
C510        C  0.48136134  0.94910875  0.13615358     0.11100
S511        S  0.39570487  0.00769819  0.19578708    -0.32300
S512        S  0.51605599  0.92532907  0.11612461    -0.32300
H513        H  0.52189023  0.95033813  0.09078589     0.29100
H514        H  0.39960488  0.98990520  0.22688150     0.29100
H515        H  0.40496229  0.98978600  0.12480329     0.19700
H516        H  0.50593545  0.94389921  0.18433190     0.19700
C517        C  0.45003993  0.04312240  0.29157177    -0.06100
C518        C  0.42758092  0.01683565  0.30231971    -0.17300
C519        C  0.42000037  0.01192823  0.33742719     0.11100
C520        C  0.42979398  0.03711482  0.36192697    -0.06100
C521        C  0.44666796  0.06691342  0.34998740    -0.17300
C522        C  0.45738086  0.06981023  0.31527016     0.11100
S523        S  0.39982739  0.97218641  0.35038511    -0.32300
S524        S  0.48411773  0.10532741  0.30176857    -0.32300
H525        H  0.48585614  0.12157669  0.33423132     0.29100
H526        H  0.40630331  0.95360570  0.31963867     0.29100
H527        H  0.42180079  0.99632374  0.28427970     0.19700
H528        H  0.45222723  0.08744076  0.36813995     0.19700
C529        C  0.53184831  0.95711682  0.29480056    -0.06100
C530        C  0.51102434  0.93138975  0.31048284    -0.17300
C531        C  0.51439484  0.92223972  0.34510543     0.11100
C532        C  0.53942325  0.93838482  0.36499175    -0.06100
C533        C  0.56250696  0.96102302  0.34891203    -0.17300
C534        C  0.55920805  0.97064700  0.31443828     0.11100
S535        S  0.48484509  0.89187082  0.36446902    -0.32300
S536        S  0.58797061  0.00328551  0.29769629    -0.32300
H537        H  0.60395841  0.01183269  0.32877640     0.29100
H538        H  0.47162829  0.87897837  0.33347094     0.29100
H539        H  0.48941187  0.92078103  0.29722722     0.19700
H540        H  0.58330323  0.97136354  0.36352279     0.19700
C541        C  0.54820153  0.20290196  0.05541434    -0.06100
C542        C  0.57834771  0.19006199  0.03932720    -0.17300
C543        C  0.58156660  0.15462798  0.03111689     0.11100
C544        C  0.55811306  0.13021733  0.04531660    -0.06100
C545        C  0.53221071  0.14309020  0.06776660    -0.17300
C546        C  0.52812161  0.17883252  0.07404182     0.11100
S547        S  0.61352529  0.14303701  0.99880746    -0.32300
S548        S  0.49217041  0.19301258  0.10021991    -0.32300
H549        H  0.50107304  0.22824663  0.09958603     0.29100
H550        H  0.59540055  0.11465936  0.98556286     0.29100
H551        H  0.59459837  0.20804029  0.02536811     0.19700
H552        H  0.51438976  0.12560567  0.07973506     0.19700
C553        C  0.50190680  0.12874213  0.92751283    -0.06100
C554        C  0.53247111  0.14582589  0.93352139    -0.17300
C555        C  0.53325139  0.18141220  0.93779093     0.11100
C556        C  0.50236747  0.19975375  0.94726314    -0.06100
C557        C  0.47125135  0.18144878  0.94470315    -0.17300
C558        C  0.47073683  0.14678018  0.93311112     0.11100
S559        S  0.57551339  0.20061944  0.93522335    -0.32300
S560        S  0.42976879  0.12650389  0.92707899    -0.32300
H561        H  0.44217717  0.09321902  0.91938716     0.29100
H562        H  0.59043424  0.17581312  0.91282385     0.29100
H563        H  0.55636862  0.13205612  0.92880929     0.19700
H564        H  0.44747029  0.19367918  0.95288895     0.19700
C565        C  0.54560308  0.31437037  0.98592268    -0.06100
C566        C  0.56833471  0.33385590  0.00585474    -0.17300
C567        C  0.57389997  0.36937229  0.99971411     0.11100
C568        C  0.55643824  0.38600062  0.97286277    -0.06100
C569        C  0.53194829  0.36734774  0.95479883    -0.17300
C570        C  0.52576259  0.33232388  0.96105494     0.11100
S571        S  0.60492370  0.39243789  0.02486179    -0.32300
S572        S  0.49194272  0.31240661  0.93653397    -0.32300
H573        H  0.47648764  0.34289664  0.92487287     0.29100
H574        H  0.61079840  0.36608271  0.04876582     0.29100
H575        H  0.58240862  0.32091534  0.02574408     0.19700
H576        H  0.51868758  0.38014831  0.93422467     0.19700
C577        C  0.47015336  0.30668361  0.02743533    -0.06100
C578        C  0.48992612  0.33088060  0.04630267    -0.17300
C579        C  0.48240776  0.36623748  0.04765329     0.11100
C580        C  0.45389960  0.37875571  0.03046942    -0.06100
C581        C  0.43236731  0.35509800  0.01395659    -0.17300
C582        C  0.43910929  0.31941028  0.01369291     0.11100
S583        S  0.50920288  0.39547983  0.07170052    -0.32300
S584        S  0.40412803  0.29222823  0.00102649    -0.32300
H585        H  0.41228425  0.26555599  0.02390594     0.29100
H586        H  0.53051165  0.37039409  0.08624611     0.29100
H587        H  0.51205514  0.32310174  0.06023197     0.19700
H588        H  0.40848783  0.36424132  0.00360176     0.19700
C589        C  0.05967306  0.53010972  0.10919155    -0.06100
C590        C  0.05837213  0.56072292  0.12859946    -0.17300
C591        C  0.05018845  0.56145787  0.16380616     0.11100
C592        C  0.04191170  0.52999198  0.18118441    -0.06100
C593        C  0.04210040  0.49925311  0.16152359    -0.17300
C594        C  0.05098631  0.49882976  0.12610276     0.11100
S595        S  0.04910791  0.60390147  0.18421554    -0.32300
S596        S  0.05327279  0.45720426  0.10513757    -0.32300
H597        H  0.03339278  0.46713452  0.07718009     0.29100
H598        H  0.05992344  0.62388971  0.15598717     0.29100
H599        H  0.06408487  0.58475122  0.11572561     0.19700
H600        H  0.03545061  0.47516623  0.17397474     0.19700
C601        C  0.95371605  0.55114606  0.18300285    -0.06100
C602        C  0.96796197  0.57131530  0.15636203    -0.17300
C603        C  0.96742495  0.55980111  0.12173532     0.11100
C604        C  0.95195129  0.52786473  0.11392695    -0.06100
C605        C  0.93193814  0.51192780  0.13986996    -0.17300
C606        C  0.93217614  0.52367307  0.17383364     0.11100
S607        S  0.98825536  0.58470497  0.08847003    -0.32300
S608        S  0.90668143  0.50096134  0.20522337    -0.32300
H609        H  0.89845681  0.53147244  0.22351348     0.29100
H610        H  0.99760055  0.61270906  0.10959485     0.29100
H611        H  0.98237525  0.59408289  0.16294728     0.19700
H612        H  0.91734616  0.48890360  0.13404320     0.19700
C613        C  0.93330268  0.48546122  0.35346277    -0.06100
C614        C  0.96262070  0.46635906  0.34344541    -0.17300
C615        C  0.97651614  0.46816446  0.30981457     0.11100
C616        C  0.96203999  0.49053001  0.28548649    -0.06100
C617        C  0.93063753  0.50655504  0.29441028    -0.17300
C618        C  0.91673612  0.50512232  0.32805656     0.11100
S619        S  0.01545979  0.44471393  0.30023095    -0.32300
S620        S  0.88018726  0.53205699  0.33899959    -0.32300
H621        H  0.87104936  0.53962330  0.30500046     0.29100
H622        H  0.01377304  0.44836283  0.26425775     0.29100
H623        H  0.97508808  0.45005407  0.36194804     0.19700
H624        H  0.92038922  0.52539580  0.27702639     0.19700
C625        C  0.01955886  0.59906862  0.28803316    -0.06100
C626        C  0.99526735  0.62548910  0.29229943    -0.17300
C627        C  0.97684852  0.62854075  0.32351731     0.11100
C628        C  0.98598903  0.60708699  0.35152680    -0.06100
C629        C  0.01841804  0.59134392  0.34999069    -0.17300
C630        C  0.03669760  0.58935840  0.31846864     0.11100
S631        S  0.94281953  0.66026663  0.32675205    -0.32300
S632        S  0.07563894  0.56456443  0.31693012    -0.32300
H633        H  0.08958768  0.58328839  0.28915813     0.29100
H634        H  0.94001430  0.66639270  0.29126334     0.29100
H635        H  0.98717502  0.63994420  0.27023272     0.19700
H636        H  0.02821608  0.57815962  0.37218737     0.19700
C637        C  0.12791862  0.47470047  0.04014466    -0.06100
C638        C  0.13584763  0.45499985  0.01065203    -0.17300
C639        C  0.16910052  0.44146094  0.00578701     0.11100
C640        C  0.19515758  0.45291448  0.02853286    -0.06100
C641        C  0.18420206  0.46036833  0.06229311    -0.17300
C642        C  0.15053371  0.47200174  0.06841080     0.11100
S643        S  0.17915303  0.42198301  0.96459547    -0.32300
S644        S  0.13919426  0.48865324  0.11065348    -0.32300
H645        H  0.16811812  0.47613995  0.12767328     0.29100
H646        H  0.20473580  0.40049249  0.97775189     0.29100
H647        H  0.11818759  0.45443022  0.98947631     0.19700
H648        H  0.20284729  0.46323655  0.08227835     0.19700
C649        C  0.20942979  0.54809856  0.95172199    -0.06100
C650        C  0.19681614  0.53341503  0.92136561    -0.17300
C651        C  0.16317562  0.53988140  0.91063914     0.11100
C652        C  0.14182596  0.56335102  0.92939642    -0.06100
C653        C  0.15625575  0.58164990  0.95698817    -0.17300
C654        C  0.18954745  0.57411842  0.96837264     0.11100
S655        S  0.14769363  0.51626499  0.87398166    -0.32300
S656        S  0.20514728  0.59423591  0.00711333    -0.32300
H657        H  0.17434353  0.61093012  0.01672508     0.29100
H658        H  0.17948285  0.50291815  0.86247718     0.29100
H659        H  0.21150995  0.51286447  0.90899409     0.19700
H660        H  0.14096994  0.60116356  0.97026670     0.19700
C661        C  0.37286346  0.54990385  0.05197527    -0.06100
C662        C  0.35764072  0.52019807  0.06601086    -0.17300
C663        C  0.32402450  0.51006874  0.05803332     0.11100
C664        C  0.30428562  0.52995660  0.03491336    -0.06100
C665        C  0.31901238  0.56045885  0.02214127    -0.17300
C666        C  0.35212919  0.57120624  0.03129512     0.11100
S667        S  0.30818617  0.47177179  0.07889888    -0.32300
S668        S  0.36531979  0.61422107  0.01997921    -0.32300
H669        H  0.33964121  0.62070477  0.99595774     0.29100
H670        H  0.30075067  0.45504600  0.04764894     0.29100
H671        H  0.37188626  0.50518922  0.08431880     0.19700
H672        H  0.30387988  0.57664989  0.00567124     0.19700
C673        C  0.37767290  0.45505352  0.99452941    -0.06100
C674        C  0.35502127  0.42730175  0.98989687    -0.17300
C675        C  0.32284449  0.43206692  0.97504100     0.11100
C676        C  0.31136634  0.46616639  0.96832151    -0.06100
C677        C  0.33715020  0.49159476  0.96523689    -0.17300
C678        C  0.37001954  0.48642988  0.97844227     0.11100
S679        S  0.29922784  0.39431334  0.96169030    -0.32300
S680        S  0.40113746  0.52041715  0.97569224    -0.32300
H681        H  0.38072194  0.54471869  0.95881807     0.29100
H682        H  0.32400537  0.36959246  0.97042028     0.29100
H683        H  0.36189168  0.40212213  0.99947495     0.19700
H684        H  0.33131768  0.51652829  0.95478134     0.19700
C685        C  0.06402968  0.91229217  0.42068876    -0.06100
C686        C  0.08769785  0.88719996  0.43070797    -0.17300
C687        C  0.08192524  0.85182174  0.42559746     0.11100
C688        C  0.05007500  0.84051555  0.41256143    -0.06100
C689        C  0.03041028  0.86591394  0.39554999    -0.17300
C690        C  0.03670378  0.90151426  0.40000896     0.11100
S691        S  0.11550323  0.82190139  0.43635447    -0.32300
S692        S  0.00778022  0.93157407  0.38052967    -0.32300
H693        H  0.03123078  0.95894451  0.37765607     0.29100
H694        H  0.13977940  0.84629588  0.44714965     0.29100
H695        H  0.11106375  0.89548811  0.44257070     0.19700
H696        H  0.00681890  0.85854119  0.38332982     0.19700
C697        C  0.97634637  0.84224051  0.51191032    -0.06100
C698        C  0.94244362  0.85182018  0.50560710    -0.17300
C699        C  0.92989609  0.88460550  0.51561729     0.11100
C700        C  0.95209125  0.90890434  0.53101758    -0.06100
C701        C  0.98465010  0.89792476  0.54061409    -0.17300
C702        C  0.99676430  0.86489043  0.53187567     0.11100
S703        S  0.88518974  0.89436591  0.51013201    -0.32300
S704        S  0.04033282  0.85495635  0.54317601    -0.32300
H705        H  0.04063898  0.82048793  0.53189854     0.29100
H706        H  0.87787576  0.86614237  0.48846138     0.29100
H707        H  0.92664839  0.83462670  0.49058275     0.19700
H708        H  0.00097076  0.91543925  0.55472538     0.19700
C709        C  0.95222107  0.67062797  0.42722854    -0.06100
C710        C  0.97806165  0.68510191  0.40638479    -0.17300
C711        C  0.98396410  0.72076411  0.40532026     0.11100
C712        C  0.96446520  0.74331157  0.42739086    -0.06100
C713        C  0.93740033  0.72883248  0.44700476    -0.17300
C714        C  0.93090021  0.69300902  0.44688245     0.11100
S715        S  0.01722658  0.73552867  0.37579413    -0.32300
S716        S  0.89651502  0.67587760  0.47329031    -0.32300
H717        H  0.88130297  0.70787219  0.48185899     0.29100
H718        H  0.03260407  0.70330562  0.36854856     0.29100
H719        H  0.99348992  0.66828357  0.39004188     0.19700
H720        H  0.92239317  0.74554747  0.46397029     0.19700
C721        C  0.04181844  0.65612125  0.49495904    -0.06100
C722        C  0.02425269  0.67703376  0.51921239    -0.17300
C723        C  0.01917710  0.71251019  0.51368220     0.11100
C724        C  0.03125088  0.72787009  0.48266352    -0.06100
C725        C  0.04708648  0.70609090  0.45772010    -0.17300
C726        C  0.05173695  0.67068483  0.46321217     0.11100
S727        S  0.00050211  0.73683602  0.54909745    -0.32300
S728        S  0.07176781  0.64534628  0.42921379    -0.32300
H729        H  0.05918190  0.61330594  0.44060676     0.29100
H730        H  0.01942818  0.76686321  0.54267383     0.29100
H731        H  0.01738840  0.66644098  0.54414309     0.19700
H732        H  0.05582557  0.71644180  0.43337768     0.19700
C733        C  0.79015933  0.06423783  0.46572179    -0.06100
C734        C  0.81272651  0.06867861  0.49346296    -0.17300
C735        C  0.84673394  0.07946999  0.48939187     0.11100
C736        C  0.85972080  0.08731045  0.45620127    -0.06100
C737        C  0.83724857  0.08409514  0.42826015    -0.17300
C738        C  0.80265086  0.07406503  0.43269798     0.11100
S739        S  0.87213635  0.08398869  0.52774527    -0.32300
S740        S  0.77434285  0.07846253  0.39673548    -0.32300
H741        H  0.79707300  0.09663571  0.37498779     0.29100
H742        H  0.84536602  0.08198098  0.55239998     0.29100
H743        H  0.80445051  0.06351319  0.51925691     0.19700
H744        H  0.84649389  0.09099216  0.40279287     0.19700
C745        C  0.79074428  0.99557823  0.52357091    -0.06100
C746        C  0.81349721  0.98395470  0.49724909    -0.17300
C747        C  0.84923379  0.98193369  0.50181755     0.11100
C748        C  0.86333339  0.99094555  0.53412085    -0.06100
C749        C  0.84039017  0.00455079  0.55960895    -0.17300
C750        C  0.80472271  0.00619527  0.55503401     0.11100
S751        S  0.87564179  0.96875196  0.46540105    -0.32300
S752        S  0.77712426  0.02244509  0.58939888    -0.32300
H753        H  0.80286219  0.02836451  0.61356805     0.29100
H754        H  0.85028231  0.97002119  0.44022263     0.29100
H755        H  0.80325701  0.97768041  0.47229083     0.19700
H756        H  0.85039399  0.01371912  0.58375688     0.19700
C757        C  0.68887940  0.97602448  0.44665932    -0.06100
C758        C  0.67862832  0.94561218  0.46413830    -0.17300
C759        C  0.64466355  0.93372083  0.46455542     0.11100
C760        C  0.61990397  0.94982993  0.44403888    -0.06100
C761        C  0.63047640  0.97803420  0.42384547    -0.17300
C762        C  0.66439055  0.99052756  0.42413482     0.11100
S763        S  0.63263428  0.89975494  0.49419733    -0.32300
S764        S  0.67337072  0.02849298  0.39920711    -0.32300
H765        H  0.70417548  0.01490788  0.38550171     0.29100
H766        H  0.66264332  0.89993873  0.51364826     0.29100
H767        H  0.69597828  0.93297376  0.48118449     0.19700
H768        H  0.61216138  0.99093784  0.40792230     0.19700
C769        C  0.61098578  0.02854915  0.56027237    -0.06100
C770        C  0.61961359  0.06236218  0.55035268    -0.17300
C771        C  0.65339063  0.07104681  0.54060878     0.11100
C772        C  0.67976496  0.04610231  0.54228878    -0.06100
C773        C  0.67208137  0.01464152  0.55861567    -0.17300
C774        C  0.63800455  0.00455390  0.56446874     0.11100
S775        S  0.66093420  0.11286214  0.52199317    -0.32300
S776        S  0.63094708  0.95972635  0.57370155    -0.32300
H777        H  0.60808482  0.95519668  0.54651751     0.29100
H778        H  0.69689860  0.11090354  0.52287772     0.29100
H779        H  0.59963740  0.08171992  0.54872868     0.19700
H780        H  0.69184584  0.99497987  0.55967000     0.19700
C781        C  0.52195871  0.99912388  0.78689240    -0.06100
C782        C  0.49442791  0.00615742  0.80981460    -0.17300
C783        C  0.49835004  0.02064226  0.84205613     0.11100
C784        C  0.53115938  0.02925703  0.85328639    -0.06100
C785        C  0.55961034  0.01980991  0.83223871    -0.17300
C786        C  0.55541091  0.00625635  0.79873336     0.11100
S787        S  0.45964507  0.03636588  0.86292213    -0.32300
S788        S  0.59317768  0.00473002  0.77133145    -0.32300
H789        H  0.57646838  0.01653317  0.74185932     0.29100
H790        H  0.46390139  0.01464748  0.89112328     0.29100
H791        H  0.46856729  0.00257201  0.80279527     0.19700
H792        H  0.58487553  0.02824705  0.83967516     0.19700
C793        C  0.45308469  0.93822130  0.78214493    -0.06100
C794        C  0.42359789  0.95596762  0.79396331    -0.17300
C795        C  0.41685580  0.96201097  0.82927547     0.11100
C796        C  0.43858570  0.94786966  0.85460074    -0.06100
C797        C  0.46702877  0.92846267  0.84285528    -0.17300
C798        C  0.47468345  0.92359768  0.80739279     0.11100
S799        S  0.38119793  0.99019882  0.83994536    -0.32300
S800        S  0.51321613  0.90005678  0.79544881    -0.32300
H801        H  0.52420514  0.89276218  0.82888897     0.29100
H802        H  0.39224293  0.99989281  0.87287194     0.29100
H803        H  0.40745700  0.96841694  0.77533955     0.19700
H804        H  0.48329649  0.91673761  0.86163867     0.19700
C805        C  0.45807955  0.01548595  0.68016367    -0.06100
C806        C  0.43302527  0.00063236  0.65939450    -0.17300
C807        C  0.42679673  0.01293830  0.62625246     0.11100
C808        C  0.44400828  0.04284953  0.61428512    -0.06100
C809        C  0.46716771  0.05931163  0.63641152    -0.17300
C810        C  0.47454640  0.04583202  0.66885073     0.11100
S811        S  0.39850979  0.98832688  0.59943085    -0.32300
S812        S  0.50775905  0.06628159  0.69331438    -0.32300
H813        H  0.49667425  0.05351908  0.72540827     0.29100
H814        H  0.38537602  0.96625124  0.62503896     0.29100
H815        H  0.42165434  0.97643627  0.66748480     0.19700
H816        H  0.48013036  0.08260253  0.62806097     0.19700
C817        C  0.54860194  0.94892425  0.61455182    -0.06100
C818        C  0.57443259  0.94791478  0.63950758    -0.17300
C819        C  0.56906870  0.93031819  0.67054944     0.11100
C820        C  0.53583061  0.91839657  0.67892625    -0.06100
C821        C  0.51746139  0.90667323  0.64989584    -0.17300
C822        C  0.52269627  0.92334132  0.61772926     0.11100
S823        S  0.60436319  0.92520027  0.69908428    -0.32300
S824        S  0.49235340  0.91589769  0.58451938    -0.32300
H825        H  0.51842800  0.91207430  0.55923130     0.29100
H826        H  0.58708942  0.90159060  0.72065061     0.29100
H827        H  0.59675742  0.96425379  0.63704584     0.19700
H828        H  0.49382134  0.89258399  0.65400822     0.19700
C829        C  0.06931747  0.54301034  0.84361868    -0.06100
C830        C  0.09477631  0.54753656  0.81772003    -0.17300
C831        C  0.09131978  0.53395774  0.78430692     0.11100
C832        C  0.05967826  0.51934060  0.77472287    -0.06100
C833        C  0.03756818  0.50900150  0.80185228    -0.17300
C834        C  0.04225853  0.52020757  0.83604846     0.22500
S835        S  0.12839898  0.53262687  0.75566318    -0.32300
S836        S  0.01226978  0.50627228  0.86851502    -0.32300
H837        H  0.99545503  0.48111414  0.84875067     0.29100
H838        H  0.15082660  0.55071826  0.77721494     0.29100
H839        H  0.11756220  0.56209223  0.82367191     0.19700
H840        H  0.01505106  0.49412270  0.79637876     0.19700
C841        C  0.97810639  0.55583133  0.77283508    -0.06100
C842        C  0.99484212  0.58271909  0.79042587    -0.17300
C843        C  0.98783634  0.59023055  0.82516951     0.11100
C844        C  0.96392988  0.57020625  0.84415202    -0.06100
C845        C  0.94750058  0.54288645  0.82691777    -0.17300
C846        C  0.95406912  0.53569895  0.79168339     0.11100
S847        S  0.00850426  0.62764844  0.84326380    -0.32300
S848        S  0.92969282  0.50155987  0.77202415    -0.32300
H849        H  0.93173176  0.51435499  0.73826314     0.29100
H850        H  0.00713524  0.61623888  0.87756305     0.29100
H851        H  0.01424946  0.59787993  0.77725142     0.19700
H852        H  0.92783286  0.52838058  0.84037099     0.19700
C853        C  0.99090746  0.47634841  0.67010031    -0.06100
C854        C  0.96153241  0.48640840  0.65202258    -0.17300
C855        C  0.95781825  0.47813228  0.61683845     0.11100
C856        C  0.98288810  0.45779509  0.59963167    -0.06100
C857        C  0.00963760  0.44391122  0.61890525    -0.17300
C858        C  0.01355588  0.45257983  0.65380195     0.11100
S859        S  0.92238534  0.49553752  0.59331287    -0.32300
S860        S  0.05046264  0.43607723  0.67540373    -0.32300
H861        H  0.03841189  0.44438117  0.70884365     0.29100
H862        H  0.90902172  0.51654580  0.62011223     0.29100
H863        H  0.94425144  0.50503579  0.66404718     0.19700
H864        H  0.02766306  0.42615220  0.60661626     0.19700
C865        C  0.04647573  0.58460040  0.66224438    -0.06100
C866        C  0.07800567  0.57304558  0.64749609    -0.17300
C867        C  0.08397481  0.57242917  0.61187986     0.11100
C868        C  0.06038864  0.58807617  0.58981522    -0.06100
C869        C  0.03123875  0.60397328  0.60447069    -0.17300
C870        C  0.02374640  0.60218512  0.63999359     0.11100
S871        S  0.12053513  0.54798752  0.59606111    -0.32300
S872        S  0.98417874  0.62138724  0.65562370    -0.32300
H873        H  0.96980153  0.62809589  0.62342137     0.29100
H874        H  0.10582968  0.53815995  0.56467496     0.29100
H875        H  0.09593043  0.55887688  0.66292965     0.19700
H876        H  0.01411103  0.61783389  0.58789961     0.19700
C877        C  0.52755928  0.82148269  0.03435068    -0.06100
C878        C  0.50902116  0.82487526  0.06525034    -0.17300
C879        C  0.48807744  0.85360710  0.07171283     0.11100
C880        C  0.48611300  0.88001938  0.04652516    -0.06100
C881        C  0.50927083  0.87912805  0.01849133    -0.17300
C882        C  0.53098275  0.85055966  0.01297796     0.11100
S883        S  0.46314142  0.85467265  0.11155464    -0.32300
S884        S  0.56223417  0.85081910  0.97825244    -0.32300
H885        H  0.55349137  0.88336560  0.96512764     0.29100
H886        H  0.47974140  0.82707299  0.12771931     0.29100
H887        H  0.50802641  0.80318231  0.08253766     0.19700
H888        H  0.50918659  0.89977951  0.99997223     0.19700
C889        C  0.47689438  0.80786200  0.95461285    -0.06100
C890        C  0.44616777  0.81897122  0.97077891    -0.17300
C891        C  0.43311754  0.85246513  0.96701527     0.11100
C892        C  0.45001523  0.87641381  0.94510509    -0.06100
C893        C  0.47975833  0.86510505  0.92744665    -0.17300
C894        C  0.49292512  0.83124979  0.93102724     0.11100
S895        S  0.39436152  0.86249608  0.99117253    -0.32300
S896        S  0.52935526  0.81922034  0.90401771    -0.32300
H897        H  0.53361597  0.85074627  0.88673108     0.29100
H898        H  0.39993477  0.89834340  0.99296239     0.29100
H899        H  0.43213265  0.80149236  0.98742504     0.19700
H900        H  0.49204575  0.88256117  0.90956878     0.19700
C901        C  0.47037848  0.70786236  0.03195819    -0.06100
C902        C  0.45649373  0.68381697  0.00882650    -0.17300
C903        C  0.45059232  0.64923565  0.01801006     0.11100
C904        C  0.45496828  0.63880209  0.05267374    -0.06100
C905        C  0.46729846  0.66375124  0.07615941    -0.17300
C906        C  0.47471051  0.69768832  0.06624152     0.11100
S907        S  0.44133973  0.61910322  0.98374875    -0.32300
S908        S  0.49185663  0.72681247  0.09771265    -0.32300
H909        H  0.47424033  0.75526200  0.08435173     0.29100
H910        H  0.43700611  0.64313671  0.95722759     0.29100
H911        H  0.45511292  0.69108496  0.98200687     0.19700
H912        H  0.47156748  0.65679120  0.10268170     0.19700
C913        C  0.57343620  0.71650265  0.96310466    -0.06100
C914        C  0.56031081  0.68843552  0.94362140    -0.17300
C915        C  0.56012778  0.65468816  0.95777676     0.11100
C916        C  0.57658139  0.64914014  0.98937858    -0.06100
C917        C  0.60001503  0.67474550  0.00002953    -0.17300
C918        C  0.60037288  0.70747853  0.98495106     0.11100
S919        S  0.53480282  0.62113038  0.93863113    -0.32300
S920        S  0.63297543  0.73822875  0.99613494    -0.32300
H921        H  0.65330269  0.71513453  0.01473647     0.29100
H922        H  0.52705415  0.63921126  0.90847201     0.29100
H923        H  0.54299537  0.69397224  0.92296288     0.19700
H924        H  0.61545635  0.67070582  0.02243558     0.19700
C925        C  0.80872934  0.48942967  0.06504065    -0.06100
C926        C  0.82422943  0.46056675  0.04825536    -0.17300
C927        C  0.85979011  0.45935665  0.04184051     0.11100
C928        C  0.88107841  0.48507549  0.05597102    -0.06100
C929        C  0.86619410  0.50880159  0.07949658    -0.17300
C930        C  0.83059323  0.50976120  0.08573193     0.11100
S931        S  0.87585315  0.42650611  0.01251370    -0.32300
S932        S  0.81329555  0.53862609  0.11840338    -0.32300
H933        H  0.84459596  0.55292629  0.12871178     0.29100
H934        H  0.90228132  0.44668168  0.99805095     0.29100
H935        H  0.80850269  0.44273174  0.03394007     0.19700
H936        H  0.88237039  0.52685573  0.09285511     0.19700
C937        C  0.81182087  0.55895450  0.96419752    -0.06100
C938        C  0.82744560  0.53564750  0.94070827    -0.17300
C939        C  0.85992004  0.54230152  0.92582559     0.11100
C940        C  0.87757446  0.57277478  0.93497573    -0.06100
C941        C  0.86100112  0.59671778  0.95714019    -0.17300
C942        C  0.82841625  0.59032444  0.97137130     0.11100
S943        S  0.87801782  0.51208270  0.89483684    -0.32300
S944        S  0.80940384  0.62110049  0.00116216    -0.32300
H945        H  0.83026858  0.64915060  0.99157083     0.29100
H946        H  0.85108051  0.48801271  0.89596177     0.29100
H947        H  0.81518406  0.51100467  0.93610556     0.19700
H948        H  0.87371731  0.62080972  0.96314227     0.19700
C949        C  0.70595119  0.49253547  0.98330511    -0.06100
C950        C  0.68022432  0.51714805  0.97599453    -0.17300
C951        C  0.64698712  0.50743588  0.96690185     0.11100
C952        C  0.63813871  0.47242550  0.96664450    -0.06100
C953        C  0.66362266  0.44762856  0.97272447    -0.17300
C954        C  0.69749668  0.45713836  0.97930123     0.11100
S955        S  0.61644640  0.53962528  0.95390516    -0.32300
S956        S  0.72892139  0.42291726  0.97771891    -0.32300
H957        H  0.75552604  0.44363249  0.96435609     0.29100
H958        H  0.63818837  0.56841495  0.95651518     0.29100
H959        H  0.68552543  0.54432205  0.97729562     0.19700
H960        H  0.65756165  0.42045304  0.96980472     0.19700
C961        C  0.63437130  0.57978008  0.04200415    -0.06100
C962        C  0.65721651  0.60253865  0.02560655    -0.17300
C963        C  0.69267960  0.59690026  0.02529393     0.11100
C964        C  0.70600527  0.56718996  0.04094184    -0.06100
C965        C  0.68305127  0.54441340  0.05775174    -0.17300
C966        C  0.64745760  0.55040926  0.05828083     0.11100
S967        S  0.72060821  0.62740199  0.00401889    -0.32300
S968        S  0.61874937  0.51964766  0.07805961    -0.32300
H969        H  0.64284588  0.49276118  0.08055976     0.29100
H970        H  0.69532412  0.65184080  0.99600396     0.29100
H971        H  0.64723461  0.62454032  0.01238110     0.19700
H972        H  0.69281720  0.52087892  0.06881394     0.19700
loop_ 
_geom_bond_atom_site_label_1 
_geom_bond_atom_site_label_2 
_geom_bond_distance 
_geom_bond_site_symmetry_2 
_ccdc_geom_bond_type 
C1            C2   1.546       .  S
C1            C7   1.511       .  S
C1            C5   1.550       .  S
C1          C925   1.536       .  S
C2            H9   1.084       .  S
C2            C3   1.380       .  D
C3            C4   1.552   1_554  S
C3          C964   1.497       .  S
C4            C8   1.539       .  S
C4            C6   1.548       .  S
C4           H10   1.107       .  S
C5           H11   1.082       .  S
C5            C6   1.384   1_554  D
C6          C949   1.513       .  S
C7           H12   1.089       .  S
C7            C8   1.330   1_554  D
C8          C937   1.477       .  S
C13          C14   1.555       .  S
C13          C19   1.516   1_556  S
C13          C17   1.553   1_556  S
C13         C913   1.543       .  S
C14          H21   1.080       .  S
C14          C15   1.384       .  D
C15          C16   1.551   1_556  S
C15         C889   1.525       .  S
C16          C20   1.537       .  S
C16          C18   1.539       .  S
C16          H22   1.107       .  S
C17          H23   1.080       .  S
C17          C18   1.373       .  D
C18         C877   1.479       .  S
C19          H24   1.079       .  S
C19          C20   1.332       .  D
C20         C901   1.484       .  S
C25          C26   1.548       .  S
C25          C31   1.495       .  S
C25          C29   1.542       .  S
C25         C865   1.537       .  S
C26          H33   1.084   1_455  S
C26          C27   1.384   1_455  D
C27          C28   1.551   1_655  S
C27         C841   1.508       .  S
C28          C32   1.555       .  S
C28          C30   1.563       .  S
C28          H34   1.106   1_455  S
C29          H35   1.079       .  S
C29          C30   1.384       .  D
C30         C832   1.524       .  S
C31          H36   1.092       .  S
C31          C32   1.331       .  D
C32         C853   1.485   1_455  S
C37          C38   1.559       .  S
C37          C43   1.516       .  S
C37          C41   1.554       .  S
C37         C820   1.553       .  S
C38          H45   1.075       .  S
C38          C39   1.383       .  D
C39          C40   1.548       .  S
C39         C781   1.512       .  S
C40          C44   1.521       .  S
C40          C42   1.548       .  S
C40          H46   1.105   1_565  S
C41          H47   1.085       .  S
C41          C42   1.386       .  D
C42         C793   1.514       .  S
C43          H48   1.076       .  S
C43          C44   1.324       .  D
C44         C805   1.476   1_565  S
C49          C50   1.551       .  S
C49          C55   1.506       .  S
C49          C53   1.560   1_545  S
C49         C757   1.552   1_545  S
C50          H57   1.079       .  S
C50          C51   1.398       .  D
C51          C52   1.567       .  S
C51         C733   1.530       .  S
C52          C56   1.545       .  S
C52          C54   1.539       .  S
C52          H58   1.105       .  S
C53          H59   1.086       .  S
C53          C54   1.372   1_565  D
C54         C745   1.510   1_545  S
C55          H60   1.092       .  S
C55          C56   1.334       .  D
C56         C772   1.488       .  S
C61          C62   1.558       .  S
C61          C67   1.502       .  S
C61          C65   1.550   1_455  S
C61         C688   1.539       .  S
C62          H69   1.080       .  S
C62          C63   1.383       .  D
C63          C64   1.543   1_455  S
C63         C724   1.510       .  S
C64          C68   1.552       .  S
C64          C66   1.547       .  S
C64          H70   1.106       .  S
C65          H71   1.084       .  S
C65          C66   1.377       .  D
C66         C712   1.510       .  S
C67          H72   1.090       .  S
C67          C68   1.335   1_455  D
C68         C697   1.482       .  S
C73          C74   1.538   1_554  S
C73          C79   1.501   1_554  S
C73          C77   1.559       .  S
C73         C640   1.544       .  S
C74          H81   1.073       .  S
C74          C75   1.386       .  D
C75          C76   1.561       .  S
C75         C676   1.529       .  S
C76          C80   1.553       .  S
C76          C78   1.551   1_556  S
C76          H82   1.104       .  S
C77          H83   1.081       .  S
C77          C78   1.383       .  D
C78         C664   1.515       .  S
C79          H84   1.087       .  S
C79          C80   1.330       .  D
C80         C649   1.486       .  S
O85          V93   1.927       .  S
O85          C95   1.273       .  A
O86          V93   1.925   1_654  S
O86          C96   1.268       .  A
O87          V93   1.906   1_554  S
O87          C97   1.270       .  A
O88          V93   1.923   1_655  S
O88          C98   1.269       .  A
O89          V94   1.957   1_655  S
O89          C98   1.276       .  A
O90          V94   1.943   1_554  S
O90          C97   1.272       .  A
O91          V94   1.916   1_655  S
O91          C96   1.271   1_556  A
O92          V94   1.927       .  S
O92          C95   1.267       .  A
V93          V94   2.081       .  T
C95         N125   1.463       .  S
C96         N118   1.461       .  S
C97         N369   1.465       .  S
C98          N99   1.471       .  S
N99         C103   1.375       .  A
N99         C100   1.378       .  A
C100        C101   1.381       .  A
C100        C844   1.492       .  S
C101        C102   1.349       .  A
C101        H104   1.083       .  S
C102        C103   1.377       .  A
C102        H105   1.083       .  S
C103        C940   1.488       .  S
C106        C107   1.532       .  S
C106        C112   1.507   1_455  S
C106        C110   1.576   1_455  S
C106        C625   1.538       .  S
C107        H114   1.083       .  S
C107        C108   1.372       .  D
C108        C109   1.564   1_455  S
C108        C592   1.515       .  S
C109        C113   1.557       .  S
C109        C111   1.530       .  S
C109        H115   1.110       .  S
C110        H116   1.083       .  S
C110        C111   1.374       .  D
C111        C601   1.494       .  S
C112        H117   1.087       .  S
C112        C113   1.338       .  D
C113        C616   1.489       .  S
N118        C122   1.366       .  A
N118        C119   1.362       .  A
C119        C120   1.390       .  A
C119        C604   1.500       .  S
C120        C121   1.368       .  A
C120        H123   1.083       .  S
C121        C122   1.383       .  A
C121        H124   1.082       .  S
C122        C928   1.495       .  S
N125        C129   1.373       .  A
N125        C126   1.370       .  A
C126        C127   1.388       .  A
C126        C829   1.513       .  S
C127        C128   1.363       .  A
C127        H130   1.082       .  S
C128        C129   1.376       .  A
C128        H131   1.083       .  S
C129        C652   1.502       .  S
O132        V140   1.935       .  S
O132        C142   1.274       .  A
O133        V140   1.929       .  S
O133        C143   1.268   1_554  A
O134        V140   1.903       .  S
O134        C144   1.269       .  A
O135        V140   1.897       .  S
O135        C145   1.267       .  A
O136        V141   1.929       .  S
O136        C145   1.269   1_556  A
O137        V141   1.934       .  S
O137        C144   1.270   1_556  A
O138        V141   1.912       .  S
O138        C143   1.269       .  A
O139        V141   1.924   1_554  S
O139        C142   1.267       .  A
V140        V141   2.082   1_554  T
C142        N362   1.466       .  S
C143        N348   1.451       .  S
C144        N146   1.463       .  S
C145        N390   1.452       .  S
N146        C150   1.363       .  A
N146        C147   1.363       .  A
C147        C148   1.379       .  A
C147        C961   1.486       .  S
C148        C149   1.371       .  A
C148        H151   1.082       .  S
C149        C150   1.393       .  A
C149        H152   1.083       .  S
C150        C916   1.512   1_554  S
C153        C154   1.557       .  S
C153        C159   1.484   1_556  S
C153        C157   1.540       .  S
C153        C556   1.530       .  S
C154        H161   1.076       .  S
C154        C155   1.410   1_556  D
C155        C156   1.566       .  S
C155        C577   1.532       .  S
C156        C160   1.555       .  S
C156        C158   1.547   1_554  S
C156        H162   1.103       .  S
C157        H163   1.086       .  S
C157        C158   1.360       .  D
C158        C565   1.515       .  S
C159        H164   1.092       .  S
C159        C160   1.324       .  D
C160        C541   1.488       .  S
O165        V173   1.948   1_554  S
O165        C175   1.273       .  A
O166        V173   1.951   1_565  S
O166        C176   1.279       .  A
O167        V173   1.908   1_564  S
O167        C177   1.266       .  A
O168        V173   1.914       .  S
O168        C178   1.266       .  A
O169        V174   1.938   1_545  S
O169        C178   1.273       .  A
O170        V174   1.930   1_554  S
O170        C177   1.271       .  A
O171        V174   1.936       .  S
O171        C176   1.269       .  A
O172        V174   1.928   1_544  S
O172        C175   1.273       .  A
V173        V174   2.081   1_545  T
C175        N355   1.471       .  S
C176        N179   1.473       .  S
C177        N198   1.454       .  S
C178        N205   1.460       .  S
N179        C183   1.373       .  A
N179        C180   1.378       .  A
C180        C181   1.384       .  A
C180        C796   1.512       .  S
C181        C182   1.355       .  A
C181        H184   1.082       .  S
C182        C183   1.381       .  A
C182        H185   1.081       .  S
C183        C892   1.506       .  S
C186        C187   1.557       .  S
C186        C192   1.503   1_565  S
C186        C190   1.540       .  S
C186        C529   1.535       .  S
C187        H194   1.086       .  S
C187        C188   1.372       .  D
C188        C189   1.529   1_565  S
C188        C508   1.497       .  S
C189        C193   1.554       .  S
C189        C191   1.562       .  S
C189        H195   1.106       .  S
C190        H196   1.084       .  S
C190        C191   1.384   1_565  D
C191        C496   1.506       .  S
C192        H197   1.092       .  S
C192        C193   1.344       .  D
C193        C517   1.483       .  S
N198        C202   1.357       .  A
N198        C199   1.365       .  A
C199        C200   1.384       .  A
C199        C505   1.498       .  S
C200        C201   1.365       .  A
C200        H203   1.083       .  S
C201        C202   1.381       .  A
C201        H204   1.082       .  S
C202        C880   1.488       .  S
N205        C209   1.368       .  A
N205        C206   1.369       .  A
C206        C207   1.383       .  A
C206        C784   1.469       .  S
C207        C208   1.355       .  A
C207        H210   1.083       .  S
C208        C209   1.382       .  A
C208        H211   1.083       .  S
C209        C553   1.467       .  S
O212        V220   1.944       .  S
O212        C222   1.275   1_455  A
O213        V220   1.927       .  S
O213        C223   1.271   1_455  A
O214        V220   1.912       .  S
O214        C224   1.269       .  A
O215        V220   1.922   1_655  S
O215        C225   1.265       .  A
O216        V221   1.938       .  S
O216        C225   1.276       .  A
O217        V221   1.932       .  S
O217        C224   1.270   1_655  A
O218        V221   1.900       .  S
O218        C223   1.266       .  A
O219        V221   1.910       .  S
O219        C222   1.267       .  A
V220        V221   2.080   1_455  T
C222        N320   1.463       .  S
C223        N341   1.454       .  S
C224        N226   1.453       .  S
C225        N376   1.461       .  S
N226        C230   1.364       .  A
N226        C227   1.364       .  A
C227        C228   1.381       .  A
C227        C721   1.485       .  S
C228        C229   1.361       .  A
C228        H231   1.083       .  S
C229        C230   1.383       .  A
C229        H232   1.082       .  S
C230        C868   1.487       .  S
O233        V241   1.931       .  S
O233        C243   1.268   1_545  A
O234        V241   1.932       .  S
O234        C244   1.272       .  A
O235        V241   1.928       .  S
O235        C245   1.274   1_545  A
O236        V241   1.929       .  S
O236        C246   1.274       .  A
O237        V242   1.932       .  S
O237        C246   1.270   1_565  A
O238        V242   1.921       .  S
O238        C245   1.266       .  A
O239        V242   1.932       .  S
O239        C244   1.269   1_565  A
O240        V242   1.925       .  S
O240        C243   1.273       .  A
V241        V242   2.080   1_545  T
C243        N334   1.459       .  S
C244        N313   1.464       .  S
C245        N247   1.464       .  S
C246        N383   1.465       .  S
N247        C251   1.371       .  A
N247        C248   1.368   1_565  A
C248        C249   1.373       .  A
C248        C769   1.495       .  S
C249        C250   1.363       .  A
C249        H252   1.083       .  S
C250        C251   1.392   1_545  A
C250        H253   1.079       .  S
C251        C817   1.517       .  S
C254        C255   1.551       .  S
C254        C260   1.498       .  S
C254        C258   1.550       .  S
C254        C445   1.559       .  S
C255        H262   1.085       .  S
C255        C256   1.388       .  D
C256        C257   1.561       .  S
C256        C472   1.521       .  S
C257        C261   1.544       .  S
C257        C259   1.550   1_545  S
C257        H263   1.102   1_545  S
C258        H264   1.077       .  S
C258        C259   1.386   1_545  D
C259        C481   1.516       .  S
C260        H265   1.082       .  S
C260        C261   1.338       .  D
C261        C460   1.498   1_545  S
O266        V274   1.929   1_455  S
O266        C276   1.270   1_545  A
O267        V274   1.927       .  S
O267        C277   1.270       .  A
O268        V274   1.931       .  S
O268        C278   1.273   1_545  A
O269        V274   1.942   1_455  S
O269        C279   1.271       .  A
O270        V275   1.938   1_455  S
O270        C279   1.276       .  A
O271        V275   1.934   1_565  S
O271        C278   1.270       .  A
O272        V275   1.906       .  S
O272        C277   1.267       .  A
O273        V275   1.913   1_465  S
O273        C276   1.268       .  A
V274        V275   2.080       .  T
C276        N306   1.462       .  S
C277        N299   1.453       .  S
C278        N280   1.466       .  S
C279        N327   1.471       .  S
N280        C284   1.368       .  A
N280        C281   1.377       .  A
C281        C282   1.393       .  A
C281        C748   1.524       .  S
C282        C283   1.357       .  A
C282        H285   1.081       .  S
C283        C284   1.372       .  A
C283        H286   1.083       .  S
C284        C700   1.485       .  S
C287        C288   1.544   1_655  S
C287        C293   1.505       .  S
C287        C291   1.548       .  S
C287        C409   1.543       .  S
C288        H295   1.082       .  S
C288        C289   1.383       .  D
C289        C290   1.551   1_455  S
C289        C424   1.518       .  S
C290        C294   1.554       .  S
C290        C292   1.567       .  S
C290        H296   1.102   1_655  S
C291        H297   1.082       .  S
C291        C292   1.384       .  D
C292        C433   1.519       .  S
C293        H298   1.085       .  S
C293        C294   1.332       .  D
C294        C400   1.489   1_655  S
N299        C303   1.359       .  A
N299        C300   1.368       .  A
C300        C301   1.383       .  A
C300        C736   1.505       .  S
C301        C302   1.364       .  A
C301        H304   1.082       .  S
C302        C303   1.384       .  A
C302        H305   1.081       .  S
C303        C412   1.494       .  S
N306        C310   1.373       .  A
N306        C307   1.369       .  A
C307        C308   1.386       .  A
C307        C457   1.507       .  S
C308        C309   1.363       .  A
C308        H311   1.080       .  S
C309        C310   1.379       .  A
C309        H312   1.083       .  S
C310        C685   1.494       .  S
N313        C317   1.365       .  A
N313        C314   1.375       .  A
C314        C315   1.382       .  A
C314        C469   1.504       .  S
C315        C316   1.363       .  A
C315        H318   1.083       .  S
C316        C317   1.380       .  A
C316        H319   1.083       .  S
C317        C808   1.494       .  S
N320        C324   1.375       .  A
N320        C321   1.369       .  A
C321        C322   1.383       .  A
C321        C421   1.491   1_655  S
C322        C323   1.358       .  A
C322        H325   1.082       .  S
C323        C324   1.376       .  A
C323        H326   1.083       .  S
C324        C856   1.487       .  S
N327        C331   1.378       .  A
N327        C328   1.376       .  A
C328        C329   1.386       .  A
C328        C448   1.518       .  S
C329        C330   1.359       .  A
C329        H332   1.082       .  S
C330        C331   1.377       .  A
C330        H333   1.083       .  S
C331        C397   1.501       .  S
N334        C338   1.363       .  A
N334        C335   1.369       .  A
C335        C336   1.387       .  A
C335        C760   1.506       .  S
C336        C337   1.360       .  A
C336        H339   1.082       .  S
C337        C338   1.377       .  A
C337        H340   1.083       .  S
C338        C532   1.481       .  S
N341        C345   1.352       .  A
N341        C342   1.365       .  A
C342        C343   1.386       .  A
C342        C709   1.496       .  S
C343        C344   1.371       .  A
C343        H346   1.082       .  S
C344        C345   1.383       .  A
C344        H347   1.082       .  S
C345        C628   1.494       .  S
N348        C352   1.363       .  A
N348        C349   1.364       .  A
C349        C350   1.381       .  A
C349        C952   1.481       .  S
C350        C351   1.361       .  A
C350        H353   1.083       .  S
C351        C352   1.382       .  A
C351        H354   1.083       .  S
C352        C568   1.491       .  S
N355        C359   1.377       .  A
N355        C356   1.369       .  A
C356        C357   1.378       .  A
C356        C493   1.495       .  S
C357        C358   1.355       .  A
C357        H360   1.082       .  S
C358        C359   1.387       .  A
C358        H361   1.081       .  S
C359        C544   1.512       .  S
N362        C366   1.369       .  A
N362        C363   1.377       .  A
C363        C364   1.378       .  A
C363        C661   1.506       .  S
C364        C365   1.360       .  A
C364        H367   1.083       .  S
C365        C366   1.386       .  A
C365        H368   1.082       .  S
C366        C904   1.510       .  S
N369        C373   1.364       .  A
N369        C370   1.363       .  A
C370        C371   1.387       .  A
C370        C589   1.504       .  S
C371        C372   1.363       .  A
C371        H374   1.082       .  S
C372        C373   1.387       .  A
C372        H375   1.083       .  S
C373        C637   1.499       .  S
N376        C380   1.366       .  A
N376        C377   1.364       .  A
C377        C378   1.379       .  A
C377        C436   1.490       .  S
C378        C379   1.365       .  A
C378        H381   1.083       .  S
C379        C380   1.385       .  A
C379        H382   1.082       .  S
C380        C613   1.500       .  S
N383        C387   1.374       .  A
N383        C384   1.372       .  A
C384        C385   1.381       .  A
C384        C484   1.495   1_545  S
C385        C386   1.356       .  A
C385        H388   1.082       .  S
C386        C387   1.376       .  A
C386        H389   1.083       .  S
C387        C520   1.489       .  S
N390        C394   1.365       .  A
N390        C391   1.363       .  A
C391        C392   1.386       .  A
C391        C673   1.494   1_554  S
C392        C393   1.357       .  A
C392        H395   1.072       .  S
C393        C394   1.373       .  A
C393        H396   1.083       .  S
C394        C580   1.478       .  S
C397        C398   1.405   1_455  A
C397        C402   1.422       .  A
C398        C399   1.409       .  A
C398        H407   1.084       .  S
C399        C400   1.417   1_655  A
C399        S403   1.801       .  S
C400        C401   1.402       .  A
C401        C402   1.411       .  A
C401        H408   1.083       .  S
C402        S404   1.803       .  S
S403        H406   1.407       .  S
S404        H405   1.407       .  S
C409        C410   1.405       .  A
C409        C414   1.428       .  A
C410        C411   1.405       .  A
C410        H419   1.080       .  S
C411        C412   1.418       .  A
C411        S415   1.805       .  S
C412        C413   1.401       .  A
C413        C414   1.413       .  A
C413        H420   1.083       .  S
C414        S416   1.804   1_655  S
S415        H418   1.407       .  S
S416        H417   1.407       .  S
C421        C422   1.411       .  A
C421        C426   1.403       .  A
C422        C423   1.412       .  A
C422        H431   1.083       .  S
C423        C424   1.415       .  A
C423        S427   1.804       .  S
C424        C425   1.410       .  A
C425        C426   1.402       .  A
C425        H432   1.075       .  S
C426        S428   1.790       .  S
S427        H430   1.407       .  S
S428        H429   1.407       .  S
C433        C434   1.418       .  A
C433        C438   1.416       .  A
C434        C435   1.405       .  A
C434        H443   1.080       .  S
C435        C436   1.405       .  A
C435        S439   1.804       .  S
C436        C437   1.408       .  A
C437        C438   1.410       .  A
C437        H444   1.081       .  S
C438        S440   1.805       .  S
S439        H442   1.406       .  S
S440        H441   1.408       .  S
C445        C446   1.422       .  A
C445        C450   1.426       .  A
C446        C447   1.420       .  A
C446        H455   1.082       .  S
C447        C448   1.417       .  A
C447        S451   1.806       .  S
C448        C449   1.407       .  A
C449        C450   1.404       .  A
C449        H456   1.084       .  S
C450        S452   1.797       .  S
S451        H454   1.406       .  S
S452        H453   1.408       .  S
C457        C458   1.414       .  A
C457        C462   1.419       .  A
C458        C459   1.406       .  A
C458        H467   1.079       .  S
C459        C460   1.405       .  A
C459        S463   1.797       .  S
C460        C461   1.413       .  A
C461        C462   1.418       .  A
C461        H468   1.083   1_565  S
C462        S464   1.800   1_565  S
S463        H466   1.407       .  S
S464        H465   1.406       .  S
C469        C470   1.408       .  A
C469        C474   1.413       .  A
C470        C471   1.409       .  A
C470        H479   1.078       .  S
C471        C472   1.417       .  A
C471        S475   1.804       .  S
C472        C473   1.415       .  A
C473        C474   1.412       .  A
C473        H480   1.082       .  S
C474        S476   1.804       .  S
S475        H478   1.407       .  S
S476        H477   1.407       .  S
C481        C482   1.409       .  A
C481        C486   1.414       .  A
C482        C483   1.402       .  A
C482        H491   1.075       .  S
C483        C484   1.402       .  A
C483        S487   1.786       .  S
C484        C485   1.412       .  A
C485        C486   1.408       .  A
C485        H492   1.076       .  S
C486        S488   1.806       .  S
S487        H490   1.407       .  S
S488        H489   1.407       .  S
C493        C494   1.407       .  A
C493        C498   1.414       .  A
C494        C495   1.407       .  A
C494        H503   1.072       .  S
C495        C496   1.415       .  A
C495        S499   1.805       .  S
C496        C497   1.411       .  A
C497        C498   1.401       .  A
C497        H504   1.081   1_545  S
C498        S500   1.808   1_545  S
S499        H502   1.407       .  S
S500        H501   1.407       .  S
C505        C506   1.411       .  A
C505        C510   1.419       .  A
C506        C507   1.407       .  A
C506        H515   1.084       .  S
C507        C508   1.411       .  A
C507        S511   1.801   1_565  S
C508        C509   1.403       .  A
C509        C510   1.394       .  A
C509        H516   1.083       .  S
C510        S512   1.797       .  S
S511        H514   1.406   1_545  S
S512        H513   1.402       .  S
C517        C518   1.405       .  A
C517        C522   1.411       .  A
C518        C519   1.404       .  A
C518        H527   1.081   1_545  S
C519        C520   1.415       .  A
C519        S523   1.801   1_545  S
C520        C521   1.407       .  A
C521        C522   1.409       .  A
C521        H528   1.083       .  S
C522        S524   1.803       .  S
S523        H526   1.407       .  S
S524        H525   1.407       .  S
C529        C530   1.421       .  A
C529        C534   1.423       .  A
C530        C531   1.402       .  A
C530        H539   1.077       .  S
C531        C532   1.402       .  A
C531        S535   1.807       .  S
C532        C533   1.400       .  A
C533        C534   1.401       .  A
C533        H540   1.076       .  S
C534        S536   1.809   1_565  S
S535        H538   1.407       .  S
S536        H537   1.407       .  S
C541        C542   1.410       .  A
C541        C546   1.414       .  A
C542        C543   1.410       .  A
C542        H551   1.084       .  S
C543        C544   1.424       .  A
C543        S547   1.806   1_554  S
C544        C545   1.410       .  A
C545        C546   1.411       .  A
C545        H552   1.074       .  S
C546        S548   1.799       .  S
S547        H550   1.407       .  S
S548        H549   1.408       .  S
C553        C554   1.389       .  A
C553        C558   1.414       .  A
C554        C555   1.386       .  A
C554        H563   1.085       .  S
C555        C556   1.438       .  A
C555        S559   1.813       .  S
C556        C557   1.413       .  A
C557        C558   1.412       .  A
C557        H564   1.082       .  S
C558        S560   1.802       .  S
S559        H562   1.408       .  S
S560        H561   1.403       .  S
C565        C566   1.406   1_556  A
C565        C570   1.433       .  A
C566        C567   1.414   1_554  A
C566        H575   1.082       .  S
C567        C568   1.416       .  A
C567        S571   1.804   1_556  S
C568        C569   1.396       .  A
C569        C570   1.400       .  A
C569        H576   1.083       .  S
C570        S572   1.813       .  S
S571        H574   1.406       .  S
S572        H573   1.407       .  S
C577        C578   1.423       .  A
C577        C582   1.423       .  A
C578        C579   1.399       .  A
C578        H587   1.072       .  S
C579        C580   1.397       .  A
C579        S583   1.809       .  S
C580        C581   1.404       .  A
C581        C582   1.406       .  A
C581        H588   1.083       .  S
C582        S584   1.800       .  S
S583        H586   1.407       .  S
S584        H585   1.408       .  S
C589        C590   1.399       .  A
C589        C594   1.421       .  A
C590        C591   1.398       .  A
C590        H599   1.081       .  S
C591        C592   1.432       .  A
C591        S595   1.818       .  S
C592        C593   1.408       .  A
C593        C594   1.412       .  A
C593        H600   1.084       .  S
C594        S596   1.800       .  S
S595        H598   1.406       .  S
S596        H597   1.403       .  S
C601        C602   1.408       .  A
C601        C606   1.405       .  A
C602        C603   1.413       .  A
C602        H611   1.078       .  S
C603        C604   1.410       .  A
C603        S607   1.801       .  S
C604        C605   1.410       .  A
C605        C606   1.392       .  A
C605        H612   1.083       .  S
C606        S608   1.796       .  S
S607        H610   1.407       .  S
S608        H609   1.406       .  S
C613        C614   1.408       .  A
C613        C618   1.417       .  A
C614        C615   1.407       .  A
C614        H623   1.082       .  S
C615        C616   1.412       .  A
C615        S619   1.801   1_655  S
C616        C617   1.409       .  A
C617        C618   1.407       .  A
C617        H624   1.079       .  S
C618        S620   1.808       .  S
S619        H622   1.408       .  S
S620        H621   1.407       .  S
C625        C626   1.400   1_455  A
C625        C630   1.422       .  A
C626        C627   1.401       .  A
C626        H635   1.079       .  S
C627        C628   1.424       .  A
C627        S631   1.809       .  S
C628        C629   1.404   1_655  A
C629        C630   1.406       .  A
C629        H636   1.081       .  S
C630        S632   1.796       .  S
S631        H634   1.407       .  S
S632        H633   1.406       .  S
C637        C638   1.400       .  A
C637        C642   1.427       .  A
C638        C639   1.408       .  A
C638        H647   1.084   1_554  S
C639        C640   1.429       .  A
C639        S643   1.798   1_554  S
C640        C641   1.399       .  A
C641        C642   1.404       .  A
C641        H648   1.080       .  S
C642        S644   1.804       .  S
S643        H646   1.405       .  S
S644        H645   1.407       .  S
C649        C650   1.403       .  A
C649        C654   1.415       .  A
C650        C651   1.409       .  A
C650        H659   1.083       .  S
C651        C652   1.419       .  A
C651        S655   1.800       .  S
C652        C653   1.407       .  A
C653        C654   1.412       .  A
C653        H660   1.083       .  S
C654        S656   1.805   1_556  S
S655        H658   1.407       .  S
S656        H657   1.407       .  S
C661        C662   1.405       .  A
C661        C666   1.419       .  A
C662        C663   1.410       .  A
C662        H671   1.083       .  S
C663        C664   1.424       .  A
C663        S667   1.800       .  S
C664        C665   1.404       .  A
C665        C666   1.411       .  A
C665        H672   1.082       .  S
C666        S668   1.799       .  S
S667        H670   1.406       .  S
S668        H669   1.406   1_554  S
C673        C674   1.406       .  A
C673        C678   1.405       .  A
C674        C675   1.405       .  A
C674        H683   1.081       .  S
C675        C676   1.421       .  A
C675        S679   1.807       .  S
C676        C677   1.414       .  A
C677        C678   1.406       .  A
C677        H684   1.076       .  S
C678        S680   1.795       .  S
S679        H682   1.408       .  S
S680        H681   1.406       .  S
C685        C686   1.402       .  A
C685        C690   1.410       .  A
C686        C687   1.401       .  A
C686        H695   1.078       .  S
C687        C688   1.421       .  A
C687        S691   1.805       .  S
C688        C689   1.421       .  A
C689        C690   1.410       .  A
C689        H696   1.082       .  S
C690        S692   1.801       .  S
S691        H694   1.407       .  S
S692        H693   1.406       .  S
C697        C698   1.401       .  A
C697        C702   1.422       .  A
C698        C699   1.408       .  A
C698        H707   1.083       .  S
C699        C700   1.417       .  A
C699        S703   1.803       .  S
C700        C701   1.398       .  A
C701        C702   1.399       .  A
C701        H708   1.084   1_655  S
C702        S704   1.807   1_655  S
S703        H706   1.406       .  S
S704        H705   1.401       .  S
C709        C710   1.402       .  A
C709        C714   1.410       .  A
C710        C711   1.401       .  A
C710        H719   1.080       .  S
C711        C712   1.427       .  A
C711        S715   1.812   1_655  S
C712        C713   1.410       .  A
C713        C714   1.410       .  A
C713        H720   1.083       .  S
C714        S716   1.804       .  S
S715        H718   1.407       .  S
S716        H717   1.407       .  S
C721        C722   1.404       .  A
C721        C726   1.408       .  A
C722        C723   1.406       .  A
C722        H731   1.084       .  S
C723        C724   1.420       .  A
C723        S727   1.802       .  S
C724        C725   1.411       .  A
C725        C726   1.401       .  A
C725        H732   1.079       .  S
C726        S728   1.803       .  S
S727        H730   1.400       .  S
S728        H729   1.407       .  S
C733        C734   1.415       .  A
C733        C738   1.418       .  A
C734        C735   1.399       .  A
C734        H743   1.067       .  S
C735        C736   1.411       .  A
C735        S739   1.813       .  S
C736        C737   1.414       .  A
C737        C738   1.414       .  A
C737        H744   1.082       .  S
C738        S740   1.807       .  S
S739        H742   1.406       .  S
S740        H741   1.407       .  S
C745        C746   1.411       .  A
C745        C750   1.406   1_565  A
C746        C747   1.412       .  A
C746        H755   1.082       .  S
C747        C748   1.421       .  A
C747        S751   1.803       .  S
C748        C749   1.419   1_565  A
C749        C750   1.409       .  A
C749        H756   1.080       .  S
C750        S752   1.807       .  S
S751        H754   1.406       .  S
S752        H753   1.406       .  S
C757        C758   1.418       .  A
C757        C762   1.426       .  A
C758        C759   1.405       .  A
C758        H767   1.076       .  S
C759        C760   1.412       .  A
C759        S763   1.811       .  S
C760        C761   1.407       .  A
C761        C762   1.411       .  A
C761        H768   1.079       .  S
C762        S764   1.798   1_565  S
S763        H766   1.407       .  S
S764        H765   1.405       .  S
C769        C770   1.407       .  A
C769        C774   1.417       .  A
C770        C771   1.407       .  A
C770        H779   1.084       .  S
C771        C772   1.413       .  A
C771        S775   1.801       .  S
C772        C773   1.408       .  A
C773        C774   1.402       .  A
C773        H780   1.084   1_545  S
C774        S776   1.795   1_545  S
S775        H778   1.408       .  S
S776        H777   1.406       .  S
C781        C782   1.407   1_565  A
C781        C786   1.420   1_565  A
C782        C783   1.379       .  A
C782        H791   1.060       .  S
C783        C784   1.402       .  A
C783        S787   1.803       .  S
C784        C785   1.412       .  A
C785        C786   1.411       .  A
C785        H792   1.084       .  S
C786        S788   1.802       .  S
S787        H790   1.398       .  S
S788        H789   1.407       .  S
C793        C794   1.407       .  A
C793        C798   1.426       .  A
C794        C795   1.409       .  A
C794        H803   1.084       .  S
C795        C796   1.424       .  A
C795        S799   1.807       .  S
C796        C797   1.406       .  A
C797        C798   1.414       .  A
C797        H804   1.079       .  S
C798        S800   1.808       .  S
S799        H802   1.406       .  S
S800        H801   1.406       .  S
C805        C806   1.401       .  A
C805        C810   1.410       .  A
C806        C807   1.401       .  A
C806        H815   1.084   1_545  S
C807        C808   1.417       .  A
C807        S811   1.801   1_545  S
C808        C809   1.409       .  A
C809        C810   1.402       .  A
C809        H816   1.084       .  S
C810        S812   1.803       .  S
S811        H814   1.406       .  S
S812        H813   1.405       .  S
C817        C818   1.413       .  A
C817        C822   1.421       .  A
C818        C819   1.402       .  A
C818        H827   1.081       .  S
C819        C820   1.411       .  A
C819        S823   1.797       .  S
C820        C821   1.420       .  A
C821        C822   1.422       .  A
C821        H828   1.083       .  S
C822        S824   1.790       .  S
S823        H826   1.409       .  S
S824        H825   1.407       .  S
C829        C830   1.412       .  A
C829        C834   1.412       .  A
C830        C831   1.405       .  A
C830        H839   1.082       .  S
C831        C832   1.415       .  A
C831        S835   1.809       .  S
C832        C833   1.410       .  A
C833        C834   1.409       .  A
C833        H840   1.076       .  S
C834        S836   1.791       .  S
S835        H838   1.407       .  S
S836        H837   1.406   1_455  S
C841        C842   1.409       .  A
C841        C846   1.418       .  A
C842        C843   1.399       .  A
C842        H851   1.083   1_655  S
C843        C844   1.415       .  A
C843        S847   1.803   1_655  S
C844        C845   1.409       .  A
C845        C846   1.412       .  A
C845        H852   1.081       .  S
C846        S848   1.803       .  S
S847        H850   1.407       .  S
S848        H849   1.406       .  S
C853        C854   1.412       .  A
C853        C858   1.412   1_655  A
C854        C855   1.411       .  A
C854        H863   1.083       .  S
C855        C856   1.410       .  A
C855        S859   1.805       .  S
C856        C857   1.405   1_655  A
C857        C858   1.405       .  A
C857        H864   1.084       .  S
C858        S860   1.800       .  S
S859        H862   1.407       .  S
S860        H861   1.407       .  S
C865        C866   1.418       .  A
C865        C870   1.427       .  A
C866        C867   1.398       .  A
C866        H875   1.082       .  S
C867        C868   1.409       .  A
C867        S871   1.806       .  S
C868        C869   1.402       .  A
C869        C870   1.407       .  A
C869        H876   1.082       .  S
C870        S872   1.805   1_455  S
S871        H874   1.407       .  S
S872        H873   1.407       .  S
C877        C878   1.394       .  A
C877        C882   1.409       .  A
C878        C879   1.397       .  A
C878        H887   1.080       .  S
C879        C880   1.424       .  A
C879        S883   1.812       .  S
C880        C881   1.402       .  A
C881        C882   1.404       .  A
C881        H888   1.080   1_554  S
C882        S884   1.801   1_554  S
S883        H886   1.407       .  S
S884        H885   1.407       .  S
C889        C890   1.408       .  A
C889        C894   1.430       .  A
C890        C891   1.402       .  A
C890        H899   1.082       .  S
C891        C892   1.419       .  A
C891        S895   1.805       .  S
C892        C893   1.405       .  A
C893        C894   1.416       .  A
C893        H900   1.079       .  S
C894        S896   1.809       .  S
S895        H898   1.406       .  S
S896        H897   1.406       .  S
C901        C902   1.405       .  A
C901        C906   1.405       .  A
C902        C903   1.406       .  A
C902        H911   1.083   1_554  S
C903        C904   1.422       .  A
C903        S907   1.804   1_554  S
C904        C905   1.414       .  A
C905        C906   1.401       .  A
C905        H912   1.083       .  S
C906        S908   1.796       .  S
S907        H910   1.406       .  S
S908        H909   1.406       .  S
C913        C914   1.421       .  A
C913        C918   1.409       .  A
C914        C915   1.421       .  A
C914        H923   1.082       .  S
C915        C916   1.414       .  A
C915        S919   1.799       .  S
C916        C917   1.415   1_556  A
C917        C918   1.400   1_554  A
C917        H924   1.080       .  S
C918        S920   1.802       .  S
S919        H922   1.407       .  S
S920        H921   1.408   1_556  S
C925        C926   1.417       .  A
C925        C930   1.419       .  A
C926        C927   1.407       .  A
C926        H935   1.082       .  S
C927        C928   1.413       .  A
C927        S931   1.803       .  S
C928        C929   1.407       .  A
C929        C930   1.407       .  A
C929        H936   1.079       .  S
C930        S932   1.804       .  S
S931        H934   1.407   1_554  S
S932        H933   1.407       .  S
C937        C938   1.407       .  A
C937        C942   1.406       .  A
C938        C939   1.409       .  A
C938        H947   1.083       .  S
C939        C940   1.414       .  A
C939        S943   1.804       .  S
C940        C941   1.407       .  A
C941        C942   1.401       .  A
C941        H948   1.083       .  S
C942        S944   1.802   1_556  S
S943        H946   1.407       .  S
S944        H945   1.407   1_554  S
C949        C950   1.418       .  A
C949        C954   1.418       .  A
C950        C951   1.403       .  A
C950        H959   1.073       .  S
C951        C952   1.399       .  A
C951        S955   1.805       .  S
C952        C953   1.406       .  A
C953        C954   1.402       .  A
C953        H960   1.084       .  S
C954        S956   1.804       .  S
S955        H958   1.407       .  S
S956        H957   1.407       .  S
C961        C962   1.403       .  A
C961        C966   1.405       .  A
C962        C963   1.401       .  A
C962        H971   1.075       .  S
C963        C964   1.409       .  A
C963        S967   1.803       .  S
C964        C965   1.413       .  A
C965        C966   1.409       .  A
C965        H972   1.082       .  S
C966        S968   1.803       .  S
S967        H970   1.407   1_554  S
S968        H969   1.407       .  S
