geometry optimzed in LAMMPS
_audit_creation_date              2020-11-30 
_audit_creation_method            'lammps2cif' 
_symmetry_space_group_name_H-M    'P1' 
_symmetry_Int_Tables_number       1 
_symmetry_cell_setting            triclinic 
loop_ 
_symmetry_equiv_pos_as_xyz 
  x,y,z 
_cell_length_a                    28.88305463139877 
_cell_length_b                    83.23897531897478 
_cell_length_c                    26.016622799035815 
_cell_angle_alpha                 89.98619936910458 
_cell_angle_beta                  90.01462381310442 
_cell_angle_gamma                 89.99540746065286 
loop_ 
_atom_site_label 
_atom_site_type_symbol 
_atom_site_fract_x 
_atom_site_fract_y 
_atom_site_fract_z 
_atom_site_charge 
C1          C  0.76379010  0.74806356  0.52488809     0.03280
C2          C  0.72507515  0.75039463  0.49700166     0.03280
C3          C  0.26488202  0.75011959  0.50535426     0.03280
C4          C  0.22613190  0.74780366  0.53316591     0.03280
N5          N  0.39906190  0.80731046  0.47504896    -0.24570
N6          N  0.42393077  0.79660557  0.50044723    -0.32430
C7          C  0.39643097  0.78460477  0.51619336     0.03770
C8          C  0.35207255  0.78790988  0.50016963     0.09790
C9          C  0.35464620  0.80233162  0.47388479    -0.03300
H10         H  0.40842832  0.77380024  0.53514067     0.10460
H11         H  0.32702062  0.80831161  0.45331454     0.11660
Cu12       Cu  0.49484006  0.79720264  0.50579743     0.44170
Cu13       Cu  0.42936294  0.82707969  0.43962483     0.41990
Cu14       Cu  0.55771010  0.82715620  0.43686712     0.43880
N15         N  0.56551686  0.79668956  0.49744391    -0.31960
N16         N  0.58939454  0.80741766  0.47101071    -0.26210
C17         C  0.63379435  0.80249091  0.46803350    -0.02310
C18         C  0.63740396  0.78807797  0.49422471     0.09900
C19         C  0.59365580  0.78472658  0.51207693     0.03700
H20         H  0.66065372  0.80850523  0.44636359     0.11350
H21         H  0.58242804  0.77391962  0.53157409     0.10430
N22         N  0.51582603  0.84514943  0.40645103    -0.33410
N23         N  0.46994288  0.84512028  0.40744370    -0.25590
C24         C  0.45431101  0.85840526  0.38357896    -0.00830
C25         C  0.49204481  0.86712903  0.36698642     0.07780
C26         C  0.53044275  0.85845495  0.38192925     0.05880
H27         H  0.41816271  0.86135296  0.37815210     0.10980
H28         H  0.56633588  0.86145075  0.37494060     0.09820
N29         N  0.39830478  0.70235160  0.39711453    -0.24570
N30         N  0.42355110  0.71463741  0.41280380    -0.32430
C31         C  0.39630667  0.72551986  0.43557933     0.03770
C32         C  0.35167967  0.71986247  0.43420430     0.09790
C33         C  0.35368076  0.70513142  0.40964153    -0.03300
H34         H  0.40836874  0.73658875  0.45284001     0.10460
H35         H  0.32527283  0.69699130  0.40217704     0.11660
Cu36       Cu  0.49404719  0.71577322  0.40685432     0.44170
Cu37       Cu  0.42872042  0.68264637  0.36144977     0.41990
Cu38       Cu  0.55822582  0.68271999  0.35856920     0.43880
N39         N  0.56471516  0.71473368  0.40966328    -0.31960
N40         N  0.58956731  0.70248554  0.39292506    -0.26210
C41         C  0.63454784  0.70532806  0.40363883    -0.02310
C42         C  0.63718819  0.72006106  0.42811977     0.09900
C43         C  0.59257063  0.72565148  0.43132599     0.03700
H44         H  0.66277954  0.69721917  0.39508061     0.11350
H45         H  0.58095034  0.73668746  0.44916551     0.10430
N46         N  0.51591476  0.66508193  0.32671451    -0.33410
N47         N  0.47000350  0.66506075  0.32774761    -0.25590
C48         C  0.45449581  0.65181248  0.30361960    -0.00830
C49         C  0.49228635  0.64318006  0.28677934     0.07780
C50         C  0.53061355  0.65184489  0.30190128     0.05880
H51         H  0.41838399  0.64869880  0.29891160     0.10980
H52         H  0.56654353  0.64876070  0.29556551     0.09820
N53         N  0.89846515  0.79461085  0.63613314    -0.24570
N54         N  0.92344016  0.78238591  0.61942524    -0.32430
C55         C  0.89587851  0.77179231  0.59568651     0.03770
C56         C  0.85139030  0.77759918  0.59749738     0.09790
C57         C  0.85378962  0.79209329  0.62333802    -0.03300
H58         H  0.90763023  0.76083925  0.57743470     0.10460
H59         H  0.82561866  0.80027370  0.63143305     0.11660
Cu60       Cu  0.99406079  0.78105132  0.62516226     0.44170
Cu61       Cu  0.92895541  0.81400586  0.67320022     0.41990
Cu62       Cu  0.05792472  0.81396857  0.67603010     0.43880
N63         N  0.06483736  0.78231744  0.62252256    -0.31960
N64         N  0.08938095  0.79451143  0.64023951    -0.26210
C65         C  0.13441436  0.79193625  0.62922110    -0.02310
C66         C  0.13749065  0.77743748  0.60348459     0.09900
C67         C  0.09303286  0.77169129  0.59989440     0.03700
H68         H  0.16238596  0.80009005  0.63837560     0.11350
H69         H  0.08175095  0.76076727  0.58110261     0.10430
N70         N  0.01582938  0.83150936  0.70852954    -0.33410
N71         N  0.96993522  0.83151308  0.70750566    -0.25590
C72         C  0.95437138  0.84473147  0.73171990    -0.00830
C73         C  0.99214049  0.85336065  0.74861122     0.07780
C74         C  0.03050423  0.84473050  0.73342771     0.05880
H75         H  0.91825198  0.84785252  0.73629783     0.10980
H76         H  0.06642773  0.84785267  0.73962607     0.09820
N77         N  0.89907067  0.69142005  0.55682000    -0.24570
N78         N  0.92378514  0.70216073  0.53140831    -0.32430
C79         C  0.89597801  0.71400176  0.51506884     0.03770
C80         C  0.85161218  0.71053763  0.53071591     0.09790
C81         C  0.85448626  0.69620584  0.55740747    -0.03300
H82         H  0.90772581  0.72480718  0.49594605     0.10460
H83         H  0.82692273  0.69016299  0.57787346     0.11660
Cu84       Cu  0.99476516  0.70176753  0.52647111     0.44170
Cu85       Cu  0.92953491  0.67186796  0.59306939     0.41990
Cu86       Cu  0.05767471  0.67181399  0.59550497     0.43880
N87         N  0.06555196  0.70210152  0.53415706    -0.31960
N88         N  0.08938425  0.69133386  0.56049159    -0.26210
C89         C  0.13395909  0.69607351  0.56281723    -0.02310
C90         C  0.13776416  0.71040636  0.53628848     0.09900
C91         C  0.09393946  0.71391734  0.51892788     0.03700
H92         H  0.16082815  0.68999712  0.58431542     0.11350
H93         H  0.08287933  0.72473470  0.49936296     0.10430
N94         N  0.01600013  0.65403634  0.62710303    -0.33410
N95         N  0.97012582  0.65405232  0.62624006    -0.25590
C96         C  0.95458163  0.64092087  0.65096845    -0.00830
C97         C  0.99239598  0.63232334  0.66796534     0.07780
C98         C  0.03073354  0.64089657  0.65239683     0.05880
H99         H  0.91845692  0.63799481  0.65667256     0.10980
H100        H  0.06665421  0.63794864  0.65945136     0.09820
N101        N  0.39341288  0.96117802  0.14479207    -0.24570
N102        N  0.41644480  0.97181978  0.11698852    -0.32430
C103        C  0.38601996  0.98111866  0.09158671     0.03770
C104        C  0.34191322  0.97607996  0.10403292     0.09790
C105        C  0.34762787  0.96341748  0.13773502    -0.03300
H106        H  0.39538212  0.99073126  0.06559647     0.10460
H107        H  0.32070246  0.95627074  0.15541052     0.11660
Cu108      Cu  0.48821474  0.97303636  0.11360663     0.44170
Cu109      Cu  0.42589344  0.94400852  0.19010870     0.41990
Cu110      Cu  0.55241312  0.94411409  0.18844583     0.43880
N111        N  0.56004112  0.97181488  0.11468330    -0.31960
N112        N  0.58375516  0.96121270  0.14194274    -0.26210
C113        C  0.62934089  0.96341760  0.13341615    -0.02310
C114        C  0.63421565  0.97601139  0.09930020     0.09900
C115        C  0.58982111  0.98105387  0.08815714     0.03700
H116        H  0.65669188  0.95629325  0.15038658     0.11350
H117        H  0.57981876  0.99062874  0.06230946     0.10430
N118        N  0.51264477  0.92806105  0.23067020    -0.33410
N119        N  0.46680872  0.92801077  0.23125330    -0.25590
C120        C  0.45207481  0.91587757  0.26128579    -0.00830
C121        C  0.49044759  0.90800921  0.28036460     0.07780
C122        C  0.52824539  0.91596391  0.26031232     0.05880
H123        H  0.41614173  0.91288093  0.26800963     0.10980
H124        H  0.56436857  0.91304736  0.26610278     0.09820
N125        N  0.89339486  0.95676404  0.92285376    -0.24570
N126        N  0.91633993  0.96918606  0.94176096    -0.32430
C127        C  0.88582541  0.97987209  0.96059703     0.03770
C128        C  0.84176867  0.97388339  0.95311468     0.09790
C129        C  0.84763123  0.95920747  0.92927734    -0.03300
H130        H  0.89511976  0.99101936  0.97929845     0.10460
H131        H  0.82084103  0.95079370  0.91832810     0.11660
Cu132      Cu  0.98820049  0.97075263  0.94354317     0.44170
Cu133      Cu  0.92589103  0.93692936  0.89076071     0.41990
Cu134      Cu  0.05229236  0.93717896  0.89222762     0.43880
N135        N  0.06010231  0.96934616  0.94402564    -0.31960
N136        N  0.08368241  0.95700585  0.92555642    -0.26210
C137        C  0.12922685  0.95949814  0.93345505    -0.02310
C138        C  0.13429165  0.97411803  0.95783575     0.09900
C139        C  0.08999152  0.98003218  0.96407403     0.03700
H140        H  0.15638787  0.95114927  0.92314302     0.11350
H141        H  0.08008963  0.99112227  0.98273866     0.10430
N142        N  0.01261504  0.91881761  0.86123071    -0.33410
N143        N  0.96678500  0.91871101  0.86071798    -0.25590
C144        C  0.95208888  0.90515011  0.83779087    -0.00830
C145        C  0.99050197  0.89640321  0.82337769     0.07780
C146        C  0.02827444  0.90533337  0.83865370     0.05880
H147        H  0.91616738  0.90194842  0.83200882     0.10980
H148        H  0.06442117  0.90230611  0.83370509     0.09820
N149        N  0.58221041  0.03922340  0.91663683    -0.24570
N150        N  0.55925243  0.02696775  0.93664601    -0.32430
C151        C  0.58972444  0.01647358  0.95666662     0.03770
C152        C  0.63378306  0.02239620  0.94879085     0.09790
C153        C  0.62796363  0.03684778  0.92351905    -0.03300
H154        H  0.58039046  0.00552541  0.97654201     0.10460
H155        H  0.65477095  0.04517878  0.91199808     0.11660
Cu156      Cu  0.48743197  0.02532612  0.93852615     0.44170
Cu157      Cu  0.54980496  0.05883239  0.88270136     0.41990
Cu158      Cu  0.42350574  0.05835861  0.88419151     0.43880
N159        N  0.41554119  0.02666190  0.93875075    -0.31960
N160        N  0.39201787  0.03883030  0.91905724    -0.26210
C161        C  0.34647351  0.03645250  0.92719885    -0.02310
C162        C  0.34133140  0.02207931  0.95301262     0.09900
C163        C  0.38560351  0.01619533  0.95988255     0.03700
H164        H  0.31937978  0.04474847  0.91623378     0.11350
H165        H  0.39545287  0.00531699  0.97984697     0.10430
N166        N  0.46279103  0.07662197  0.85213320    -0.33410
N167        N  0.50861585  0.07684896  0.85154343    -0.25590
C168        C  0.52292181  0.09038120  0.82806711    -0.00830
C169        C  0.48423573  0.09896769  0.81338783     0.07780
C170        C  0.44674886  0.08997623  0.82909656     0.05880
H171        H  0.55874827  0.09369646  0.82222989     0.10980
H172        H  0.41051455  0.09289843  0.82426637     0.09820
N173        N  0.08215851  0.03878634  0.13711377    -0.24570
N174        N  0.05916914  0.02790928  0.11020177    -0.32430
C175        C  0.08961754  0.01830364  0.08609136     0.03770
C176        C  0.13370715  0.02337699  0.09840473     0.09790
C177        C  0.12796481  0.03638259  0.13073698    -0.03300
H178        H  0.08027423  0.00839904  0.06125696     0.10460
H179        H  0.15489246  0.04359770  0.14813259     0.11660
Cu180      Cu  0.98743732  0.02657811  0.10660820     0.44170
Cu181      Cu  0.04958606  0.05635405  0.18084709     0.41990
Cu182      Cu  0.92301310  0.05585536  0.17889859     0.43880
N183        N  0.91559588  0.02754126  0.10785534    -0.31960
N184        N  0.89177670  0.03831007  0.13426426    -0.26210
C185        C  0.84619626  0.03583177  0.12658768    -0.02310
C186        C  0.84142563  0.02288040  0.09389872     0.09900
C187        C  0.88587835  0.01790804  0.08272190     0.03700
H188        H  0.81877046  0.04297284  0.14331435     0.11350
H189        H  0.89595390  0.00807293  0.05796482     0.10430
N190        N  0.96228617  0.07223851  0.22016423    -0.33410
N191        N  0.00811625  0.07246830  0.22092872    -0.25590
C192        C  0.02232187  0.08473943  0.25071661    -0.00830
C193        C  0.98358465  0.09249309  0.26939086     0.07780
C194        C  0.94616088  0.08433373  0.24939643     0.05880
H195        H  0.05812348  0.08785469  0.25775638     0.10980
H196        H  0.90991225  0.08705872  0.25515024     0.09820
C197        C  0.73769241  0.99868529  0.02197296     0.00230
C198        C  0.23775742  0.99886480  0.02853488     0.00230
C199        C  0.73979504  0.24813928  0.49066689     0.03280
C200        C  0.70087429  0.25004474  0.51850447     0.03280
C201        C  0.24001047  0.25040306  0.54393805     0.03280
C202        C  0.20113467  0.24848871  0.51600569     0.03280
N203        N  0.06746553  0.19187701  0.47458863    -0.24570
N204        N  0.04177200  0.20239047  0.49975230    -0.32430
C205        C  0.06879213  0.21419860  0.51784869     0.03770
C206        C  0.11368475  0.21095327  0.50362995     0.09790
C207        C  0.11193731  0.19678075  0.47595260    -0.03300
H208        H  0.05622288  0.22484386  0.53724162     0.10460
H209        H  0.14024912  0.19092869  0.45619159     0.11660
Cu210      Cu  0.97071510  0.20176310  0.50188703     0.44170
Cu211      Cu  0.03833857  0.17248040  0.43612165     0.41990
Cu212      Cu  0.91020305  0.17229760  0.42792037     0.43880
N213        N  0.90031272  0.20222592  0.49089575    -0.31960
N214        N  0.87734872  0.19169960  0.46268313    -0.26210
C215        C  0.83296225  0.19657291  0.45865409    -0.02310
C216        C  0.82840024  0.21073442  0.48601438     0.09900
C217        C  0.87157912  0.21399672  0.50565798     0.03700
H218        H  0.80678187  0.19069884  0.43559706     0.11350
H219        H  0.88206840  0.22462869  0.52659484     0.10430
N220        N  0.95331366  0.15463616  0.39760516    -0.33410
N221        N  0.99912546  0.15472142  0.40059147    -0.25590
C222        C  0.01579542  0.14166468  0.37636316    -0.00830
C223        C  0.97882427  0.13302635  0.35742158     0.07780
C224        C  0.93977801  0.14151126  0.37138118     0.05880
H225        H  0.05214828  0.13879941  0.37239943     0.10980
H226        H  0.90419838  0.13849353  0.36269486     0.09820
N227        N  0.37832659  0.20162933  0.63862700    -0.24570
N228        N  0.40254178  0.21391746  0.62101866    -0.32430
C229        C  0.37388940  0.22490413  0.60103302     0.03770
C230        C  0.32942103  0.21932154  0.60624161     0.09790
C231        C  0.33297169  0.20452205  0.63019071    -0.03300
H232        H  0.38482268  0.23600831  0.58308565     0.10460
H233        H  0.30506288  0.19642037  0.64002090     0.11660
Cu234      Cu  0.47327822  0.21504383  0.62067145     0.44170
Cu235      Cu  0.41080044  0.18175821  0.67116029     0.41990
Cu236      Cu  0.54000746  0.18195325  0.66331702     0.43880
N237        N  0.54362165  0.21400469  0.61225018    -0.31960
N238        N  0.56932455  0.20172076  0.62702989    -0.26210
C239        C  0.61361533  0.20454646  0.61327351    -0.02310
C240        C  0.61495064  0.21930157  0.58882339     0.09900
C241        C  0.57026541  0.22494080  0.58883181     0.03700
H242        H  0.64224976  0.19643153  0.61992431     0.11350
H243        H  0.55776720  0.23604764  0.57220290     0.10430
N244        N  0.50017896  0.16415572  0.69784781    -0.33410
N245        N  0.45433385  0.16405166  0.70066714    -0.25590
C246        C  0.44074360  0.15066810  0.72549351    -0.00830
C247        C  0.47974858  0.14205007  0.73873376     0.07780
C248        C  0.51675877  0.15085846  0.72078855     0.05880
H249        H  0.40511346  0.14745814  0.73314183     0.10980
H250        H  0.55307137  0.14783607  0.72396172     0.09820
N251        N  0.06930046  0.29727688  0.40996385    -0.24570
N252        N  0.04330998  0.28535138  0.42691294    -0.32430
C253        C  0.06992267  0.27443632  0.45045762     0.03770
C254        C  0.11491024  0.27971180  0.44829219     0.09790
C255        C  0.11379656  0.29422947  0.42239492    -0.03300
H256        H  0.05727079  0.26353034  0.46825138     0.10460
H257        H  0.14277070  0.30198616  0.41357289     0.11660
Cu258      Cu  0.97290834  0.28455802  0.41981312     0.44170
Cu259      Cu  0.04003060  0.31674744  0.37200015     0.41990
Cu260      Cu  0.91051081  0.31692058  0.36389767     0.43880
N261        N  0.90224725  0.28541974  0.41796973    -0.31960
N262        N  0.87793903  0.29734041  0.39808000    -0.26210
C263        C  0.83251474  0.29422024  0.40511157    -0.02310
C264        C  0.82906859  0.27966353  0.43057943     0.09900
C265        C  0.87363457  0.27445546  0.43808109     0.03700
H266        H  0.80446475  0.30196035  0.39302285     0.11350
H267        H  0.88462584  0.26356382  0.45728487     0.10430
N268        N  0.95427202  0.33433910  0.33306831    -0.33410
N269        N  0.00012156  0.33424205  0.33598575    -0.25590
C270        C  0.01676373  0.34732070  0.31186653    -0.00830
C271        C  0.97980522  0.35597697  0.29304733     0.07780
C272        C  0.94075858  0.34750045  0.30699528     0.05880
H273        H  0.05309198  0.35028737  0.30842475     0.10980
H274        H  0.90515153  0.35064549  0.29892068     0.09820
N275        N  0.56719169  0.30708553  0.55484491    -0.24570
N276        N  0.54142061  0.29619385  0.53149692    -0.32430
C277        C  0.56837631  0.28413141  0.51512428     0.03770
C278        C  0.61330717  0.28760376  0.52859170     0.09790
C279        C  0.61167433  0.30218330  0.55401037    -0.03300
H280        H  0.55575879  0.27321251  0.49739624     0.10460
H281        H  0.64007959  0.30835305  0.57259142     0.11660
Cu282      Cu  0.47041234  0.29678982  0.52957208     0.44170
Cu283      Cu  0.53807468  0.32701970  0.59027856     0.41990
Cu284      Cu  0.40981729  0.32723292  0.59911233     0.43880
N285        N  0.40010725  0.29639454  0.54086461    -0.31960
N286        N  0.37705501  0.30729100  0.56749369    -0.26210
C287        C  0.33271536  0.30242690  0.57223949    -0.02310
C288        C  0.32832655  0.28787439  0.54701664     0.09900
C289        C  0.37151297  0.28438864  0.52786132     0.03700
H290        H  0.30643466  0.30861894  0.59426957     0.11350
H291        H  0.38208462  0.27350030  0.50837735     0.10430
N292        N  0.45304356  0.34531766  0.62656566    -0.33410
N293        N  0.49884260  0.34521410  0.62332998    -0.25590
C294        C  0.51558878  0.35856234  0.64578477    -0.00830
C295        C  0.47869003  0.36741442  0.66381475     0.07780
C296        C  0.43959896  0.35875160  0.65118963     0.05880
H297        H  0.55195786  0.36145659  0.64933692     0.10980
H298        H  0.40406676  0.36183592  0.65986301     0.09820
N299        N  0.39407898  0.54011493  0.10971898    -0.24570
N300        N  0.41703595  0.52779150  0.09018237    -0.32430
C301        C  0.38653504  0.51715643  0.07101906     0.03770
C302        C  0.34246921  0.52306939  0.07899788     0.09790
C303        C  0.34831351  0.53765522  0.10339762    -0.03300
H304        H  0.39583939  0.50611470  0.05167129     0.10460
H305        H  0.32150742  0.54601500  0.11471085     0.11660
Cu306      Cu  0.48886388  0.52630011  0.08801005     0.44170
Cu307      Cu  0.42652178  0.55987921  0.14237824     0.41990
Cu308      Cu  0.55282779  0.55972961  0.14072569     0.43880
N309        N  0.56072407  0.52773504  0.08771030    -0.31960
N310        N  0.58425888  0.54000584  0.10672916    -0.26210
C311        C  0.62981244  0.53754577  0.09881621    -0.02310
C312        C  0.63492040  0.52301885  0.07388010     0.09900
C313        C  0.59064024  0.51713189  0.06727424     0.03700
H314        H  0.65694816  0.54586783  0.10942929     0.11350
H315        H  0.58076958  0.50613142  0.04802784     0.10430
N316        N  0.51311724  0.57799547  0.17235033    -0.33410
N317        N  0.46728809  0.57806214  0.17292508    -0.25590
C318        C  0.45252242  0.59154448  0.19627995    -0.00830
C319        C  0.49088538  0.60028749  0.21092438     0.07780
C320        C  0.52870442  0.59142977  0.19531804     0.05880
H321        H  0.41658392  0.59469640  0.20219854     0.10980
H322        H  0.56483530  0.59447324  0.20031141     0.09820
N323        N  0.08444429  0.53840477  0.89325208    -0.24570
N324        N  0.06069022  0.52763981  0.91977485    -0.32430
C325        C  0.09044156  0.51812430  0.94530753     0.03770
C326        C  0.13484239  0.52316497  0.93429681     0.09790
C327        C  0.13002912  0.53603532  0.90126928    -0.03300
H328        H  0.08041425  0.50832410  0.97022954     0.10460
H329        H  0.15741856  0.54319395  0.88454570     0.11660
Cu330      Cu  0.98889984  0.52646708  0.92089999     0.44170
Cu331      Cu  0.05319435  0.55580605  0.84800088     0.41990
Cu332      Cu  0.92665667  0.55593763  0.84636374     0.43880
N333        N  0.91717147  0.52767316  0.91740595    -0.31960
N334        N  0.89415850  0.53850043  0.89032683    -0.26210
C335        C  0.84837231  0.53613775  0.89678059    -0.02310
C336        C  0.84264992  0.52319932  0.92934870     0.09900
C337        C  0.88672887  0.51812023  0.94173391     0.03700
H338        H  0.82145935  0.54334605  0.87931703     0.11350
H339        H  0.89606309  0.50826939  0.96678607     0.10430
N340        N  0.96756427  0.57198624  0.80571667    -0.33410
N341        N  0.01339581  0.57193331  0.80627538    -0.25590
C342        C  0.02897142  0.58400032  0.77654047    -0.00830
C343        C  0.99113825  0.59192540  0.75648561     0.07780
C344        C  0.95278623  0.58408716  0.77561464     0.05880
H345        H  0.06509099  0.58687028  0.77051660     0.10980
H346        H  0.91684411  0.58703629  0.76870665     0.09820
N347        N  0.58269584  0.46158816  0.88356978    -0.24570
N348        N  0.55978601  0.47234009  0.91107338    -0.32430
C349        C  0.59029665  0.48156820  0.93657275     0.03770
C350        C  0.63432978  0.47637448  0.92453862     0.09790
C351        C  0.62849716  0.46369354  0.89094619    -0.03300
H352        H  0.58102831  0.49123142  0.96240984     0.10460
H353        H  0.65534861  0.45643597  0.87359374     0.11660
Cu354      Cu  0.48806334  0.47382516  0.91433255     0.44170
Cu355      Cu  0.55012043  0.44441113  0.83830049     0.41990
Cu356      Cu  0.42371905  0.44500381  0.84012946     0.43880
N357        N  0.41623150  0.47270398  0.91357467    -0.31960
N358        N  0.39248231  0.46208841  0.88645574    -0.26210
C359        C  0.34693028  0.46422897  0.89520206    -0.02310
C360        C  0.34208666  0.47680159  0.92933334     0.09900
C361        C  0.38647518  0.48190467  0.94026118     0.03700
H362        H  0.31959251  0.45705148  0.87844772     0.11350
H363        H  0.39648919  0.49146590  0.96614261     0.10430
N364        N  0.46281762  0.42877747  0.79815629    -0.33410
N365        N  0.50864003  0.42849851  0.79744687    -0.25590
C366        C  0.52275205  0.41622166  0.76763748    -0.00830
C367        C  0.48394574  0.40852485  0.74888426     0.07780
C368        C  0.44659105  0.41671366  0.76887358     0.05880
H369        H  0.55852380  0.41300643  0.76088507     0.10980
H370        H  0.41032508  0.41396925  0.76334271     0.09820
N371        N  0.08287565  0.45741471  0.10782557    -0.24570
N372        N  0.05992233  0.46964219  0.08761645    -0.32430
C373        C  0.09042442  0.48017656  0.06790621     0.03770
C374        C  0.13449429  0.47430486  0.07613852     0.09790
C375        C  0.12865670  0.45984733  0.10136986    -0.03300
H376        H  0.08111393  0.49116338  0.04825943     0.10460
H377        H  0.15548700  0.45159196  0.11339658     0.11660
Cu378      Cu  0.98807751  0.47127890  0.08554144     0.44170
Cu379      Cu  0.05039644  0.43787972  0.14205452     0.41990
Cu380      Cu  0.92399631  0.43836289  0.14014496     0.43880
N381        N  0.91615179  0.47000573  0.08536370    -0.31960
N382        N  0.89256016  0.45786077  0.10507645    -0.26210
C383        C  0.84699634  0.46033581  0.09731026    -0.02310
C384        C  0.84191608  0.47474765  0.07169866     0.09900
C385        C  0.88623772  0.48055801  0.06461472     0.03700
H386        H  0.81982416  0.45212303  0.10864276     0.11350
H387        H  0.89612116  0.49149129  0.04502354     0.10430
N388        N  0.96324872  0.42029039  0.17332348    -0.33410
N389        N  0.00907327  0.42006175  0.17409318    -0.25590
C390        C  0.02330628  0.40672103  0.19872509    -0.00830
C391        C  0.98457384  0.39826354  0.21396154     0.07780
C392        C  0.94713663  0.40712979  0.19739209     0.05880
H393        H  0.05911315  0.40347169  0.20509755     0.10980
H394        H  0.91088691  0.40427874  0.20247542     0.09820
C395        C  0.73833424  0.49916534  0.00016835     0.00230
C396        C  0.23841424  0.49915473  0.00709723     0.00230
C397        C  0.76857151  0.48891472  0.03156416    -0.10550
C398        C  0.79991553  0.48181660  0.05231241    -0.12110
C399        C  0.17691854  0.48143923  0.05809822    -0.10550
C400        C  0.20831864  0.48872156  0.03809156    -0.12110
C401        C  0.67681223  0.48269476  0.94518320    -0.10550
C402        C  0.70817304  0.48935942  0.96729650    -0.12110
C403        C  0.30009229  0.48304710  0.95128977    -0.10550
C404        C  0.26878593  0.48953085  0.97398541    -0.12110
C405        C  0.76865337  0.50941397  0.96896525    -0.10550
C406        C  0.80014169  0.51644681  0.94834584    -0.12110
C407        C  0.17683261  0.51641107  0.95468221    -0.10550
C408        C  0.20802207  0.50939993  0.97594621    -0.12110
C409        C  0.30008140  0.51602999  0.06056739    -0.10550
C410        C  0.26860082  0.50901826  0.03978234    -0.12110
C411        C  0.70801601  0.50902281  0.03269401    -0.10550
C412        C  0.67680112  0.51599286  0.05407695    -0.12110
C413        C  0.48077530  0.38215095  0.69248298    -0.10550
C414        C  0.48251251  0.39430376  0.71762345    -0.12110
C415        C  0.98168466  0.37083864  0.26502853    -0.10550
C416        C  0.98327737  0.38333797  0.24167138    -0.12110
C417        C  0.15155537  0.22197820  0.50857871    -0.10550
C418        C  0.17740558  0.23325678  0.51263550    -0.12110
C419        C  0.28923540  0.22757526  0.58770833    -0.10550
C420        C  0.26283703  0.23705551  0.56868144    -0.12110
C421        C  0.15352023  0.27129035  0.46984368    -0.10550
C422        C  0.17885911  0.26179414  0.49045557    -0.12110
C423        C  0.26407274  0.26559859  0.54620121    -0.10550
C424        C  0.29009376  0.27689502  0.54742407    -0.12110
C425        C  0.67869947  0.23679661  0.54445773    -0.10550
C426        C  0.65336424  0.22747241  0.56586754    -0.12110
C427        C  0.65122461  0.27656743  0.52476691    -0.10550
C428        C  0.67705114  0.26526387  0.52145230    -0.12110
C429        C  0.79015270  0.22171532  0.48666710    -0.10550
C430        C  0.76398799  0.23296891  0.48838996    -0.12110
C431        C  0.76255392  0.26152771  0.46608655    -0.10550
C432        C  0.78883198  0.27116762  0.44772439    -0.12110
C433        C  0.98074695  0.11855080  0.32736876    -0.10550
C434        C  0.98229981  0.10657278  0.30134609    -0.12110
C435        C  0.76808973  0.00896583  0.05301499    -0.10550
C436        C  0.79939376  0.01601869  0.07394247    -0.12110
C437        C  0.17620162  0.01649724  0.07967960    -0.10550
C438        C  0.20757045  0.00930740  0.05932377    -0.12110
C439        C  0.48303125  0.11416906  0.78722357    -0.10550
C440        C  0.48153235  0.12690673  0.76519874    -0.12110
C441        C  0.67609050  0.01546710  0.96794215    -0.10550
C442        C  0.70746043  0.00851082  0.98916247    -0.12110
C443        C  0.26812252  0.00850850  0.99540997    -0.10550
C444        C  0.29943185  0.01526013  0.97348623    -0.12110
C445        C  0.79935880  0.98103512  0.97107033    -0.10550
C446        C  0.76787741  0.98828433  0.99101498    -0.12110
C447        C  0.17619085  0.98128258  0.97712628    -0.10550
C448        C  0.20742808  0.98848969  0.99767688    -0.12110
C449        C  0.70740743  0.98900863  0.05510495    -0.10550
C450        C  0.67621597  0.98239641  0.07766822    -0.12110
C451        C  0.29942321  0.98250383  0.08369183    -0.10550
C452        C  0.26796637  0.98916720  0.06171460    -0.12110
C453        C  0.99192946  0.61786029  0.69803558    -0.10550
C454        C  0.99156974  0.60591853  0.72422145    -0.12110
C455        C  0.99160980  0.86845290  0.77533983    -0.10550
C456        C  0.99108376  0.88118270  0.79740039    -0.12110
C457        C  0.49181405  0.62812401  0.25976172    -0.10550
C458        C  0.49137488  0.61544302  0.23736644    -0.12110
C459        C  0.49094802  0.89386499  0.31210104    -0.10550
C460        C  0.49143614  0.88178081  0.33770254    -0.12110
C461        C  0.28730662  0.73715797  0.47819693    -0.10550
C462        C  0.31283141  0.72794214  0.45658400    -0.12110
C463        C  0.17608640  0.72132792  0.53511494    -0.10550
C464        C  0.20225875  0.73257314  0.53387532    -0.12110
C465        C  0.31427129  0.77676646  0.50228590    -0.10550
C466        C  0.28854101  0.76539837  0.50418945    -0.12110
C467        C  0.20349112  0.76072150  0.56026845    -0.10550
C468        C  0.17720963  0.76970934  0.58173262    -0.12110
C469        C  0.70247050  0.73741455  0.47012054    -0.10550
C470        C  0.67659871  0.72816640  0.44916120    -0.12110
C471        C  0.78745639  0.73279409  0.52602241    -0.10550
C472        C  0.81345403  0.72150924  0.52810161    -0.12070
C473        C  0.67540043  0.77699277  0.49495508    -0.10550
C474        C  0.70129001  0.76565573  0.49613179    -0.12110
C475        C  0.81223770  0.76989817  0.57441347    -0.10550
C476        C  0.78628398  0.76095170  0.55228657    -0.12110
loop_ 
_geom_bond_atom_site_label_1 
_geom_bond_atom_site_label_2 
_geom_bond_distance 
_geom_bond_site_symmetry_2 
_ccdc_geom_bond_type 
C1            C2   1.347       .  D
C1          C471   1.443       .  S
C1          C476   1.443       .  S
C2          C469   1.443       .  S
C2          C474   1.444       .  S
C3            C4   1.347       .  D
C3          C461   1.443       .  S
C3          C466   1.444       .  S
C4          C464   1.443       .  S
C4          C467   1.443       .  S
N5            N6   1.321       .  A
N5            C9   1.349       .  A
N5          Cu13   2.079       .  S
N6            C7   1.340       .  A
N6          Cu12   2.053       .  S
C7            C8   1.375       .  A
C7           H10   1.082       .  S
C8            C9   1.383       .  A
C8          C465   1.434       .  S
C9           H11   1.082       .  S
Cu12         N15   2.053       .  S
Cu13         N23   2.081       .  S
Cu14         N16   2.080       .  S
Cu14         N22   2.081       .  S
N15          N16   1.321       .  A
N15          C19   1.340       .  A
N16          C17   1.349       .  A
C17          C18   1.383       .  A
C17          H20   1.082       .  S
C18          C19   1.375       .  A
C18         C473   1.434       .  S
C19          H21   1.082       .  S
N22          N23   1.326       .  A
N22          C26   1.346       .  A
N23          C24   1.346       .  A
C24          C25   1.379       .  A
C24          H27   1.082       .  S
C25          C26   1.379       .  A
C25         C460   1.438       .  S
C26          H28   1.082       .  S
N29          N30   1.321       .  A
N29          C33   1.350       .  A
N29         Cu37   2.079       .  S
N30          C31   1.338       .  A
N30         Cu36   2.044       .  S
C31          C32   1.373       .  A
C31          H34   1.083       .  S
C32          C33   1.384       .  A
C32         C462   1.432       .  S
C33          H35   1.082       .  S
Cu36         N39   2.044       .  S
Cu37         N47   2.082       .  S
Cu38         N40   2.080       .  S
Cu38         N46   2.082       .  S
N39          N40   1.321       .  A
N39          C43   1.338       .  A
N40          C41   1.350       .  A
C41          C42   1.384       .  A
C41          H44   1.082       .  S
C42          C43   1.373       .  A
C42         C470   1.432       .  S
C43          H45   1.083       .  S
N46          N47   1.326       .  A
N46          C50   1.346       .  A
N47          C48   1.346       .  A
C48          C49   1.378       .  A
C48          H51   1.082       .  S
C49          C50   1.379       .  A
C49         C457   1.437       .  S
C50          H52   1.082       .  S
N53          N54   1.321       .  A
N53          C57   1.349       .  A
N53         Cu61   2.077       .  S
N54          C55   1.339       .  A
N54         Cu60   2.048       .  S
C55          C56   1.374       .  A
C55          H58   1.083       .  S
C56          C57   1.383       .  A
C56         C475   1.432       .  S
C57          H59   1.082       .  S
Cu60         N63   2.048   1_655  S
Cu61         N71   2.079       .  S
Cu62         N64   2.078       .  S
Cu62         N70   2.080       .  S
N63          N64   1.321       .  A
N63          C67   1.339       .  A
N64          C65   1.349       .  A
C65          C66   1.383       .  A
C65          H68   1.082       .  S
C66          C67   1.373       .  A
C66         C468   1.432       .  S
C67          H69   1.083       .  S
N70          N71   1.326   1_455  A
N70          C74   1.346       .  A
N71          C72   1.345       .  A
C72          C73   1.378       .  A
C72          H75   1.082       .  S
C73          C74   1.378   1_655  A
C73         C455   1.436       .  S
C74          H76   1.082       .  S
N77          N78   1.321       .  A
N77          C81   1.348       .  A
N77         Cu85   2.076       .  S
N78          C79   1.340       .  A
N78         Cu84   2.054       .  S
C79          C80   1.375       .  A
C79          H82   1.082       .  S
C80          C81   1.383       .  A
C80         C472   1.433       .  S
C81          H83   1.082       .  S
Cu84         N87   2.054   1_655  S
Cu85         N95   2.078       .  S
Cu86         N88   2.076       .  S
Cu86         N94   2.077       .  S
N87          N88   1.321       .  A
N87          C91   1.340       .  A
N88          C89   1.348       .  A
C89          C90   1.383       .  A
C89          H92   1.082       .  S
C90          C91   1.375       .  A
C90         C463   1.433       .  S
C91          H93   1.082       .  S
N94          N95   1.325   1_455  A
N94          C98   1.345       .  A
N95          C96   1.345       .  A
C96          C97   1.378       .  A
C96          H99   1.082       .  S
C97          C98   1.378   1_655  A
C97         C453   1.436       .  S
C98         H100   1.082       .  S
N101        N102   1.323       .  A
N101        C105   1.348       .  A
N101       Cu109   2.076       .  S
N102        C103   1.344       .  A
N102       Cu108   2.077       .  S
C103        C104   1.380       .  A
C103        H106   1.082       .  S
C104        C105   1.381       .  A
C104        C451   1.439       .  S
C105        H107   1.082       .  S
Cu108       N111   2.077       .  S
Cu109       N119   2.077       .  S
Cu110       N112   2.076       .  S
Cu110       N118   2.076       .  S
N111        N112   1.323       .  A
N111        C115   1.345       .  A
N112        C113   1.348       .  A
C113        C114   1.381       .  A
C113        H116   1.082       .  S
C114        C115   1.380       .  A
C114        C450   1.439       .  S
C115        H117   1.082       .  S
N118        N119   1.324       .  A
N118        C122   1.346       .  A
N119        C120   1.346       .  A
C120        C121   1.380       .  A
C120        H123   1.082       .  S
C121        C122   1.379       .  A
C121        C459   1.438       .  S
C122        H124   1.082       .  S
N125        N126   1.323       .  A
N125        C129   1.348       .  A
N125       Cu133   2.075       .  S
N126        C127   1.345       .  A
N126       Cu132   2.080       .  S
C127        C128   1.380       .  A
C127        H130   1.082       .  S
C128        C129   1.381       .  A
C128        C445   1.440       .  S
C129        H131   1.082       .  S
Cu132       N135   2.080   1_655  S
Cu133       N143   2.075       .  S
Cu134       N136   2.073       .  S
Cu134       N142   2.074       .  S
N135        N136   1.323       .  A
N135        C139   1.345       .  A
N136        C137   1.347       .  A
C137        C138   1.380       .  A
C137        H140   1.082       .  S
C138        C139   1.381       .  A
C138        C447   1.439       .  S
C139        H141   1.082       .  S
N142        N143   1.324   1_455  A
N142        C146   1.345       .  A
N143        C144   1.346       .  A
C144        C145   1.379       .  A
C144        H147   1.082       .  S
C145        C146   1.379   1_655  A
C145        C456   1.436       .  S
C146        H148   1.082       .  S
N149        N150   1.323       .  A
N149        C153   1.348       .  A
N149       Cu157   2.078       .  S
N150        C151   1.345       .  A
N150       Cu156   2.079       .  S
C151        C152   1.380       .  A
C151        H154   1.082       .  S
C152        C153   1.381       .  A
C152        C441   1.440       .  S
C153        H155   1.082       .  S
Cu156       N159   2.079       .  S
Cu157       N167   2.078       .  S
Cu158       N160   2.072       .  S
Cu158       N166   2.072       .  S
N159        N160   1.323       .  A
N159        C163   1.345       .  A
N160        C161   1.347       .  A
C161        C162   1.380       .  A
C161        H164   1.082       .  S
C162        C163   1.381       .  A
C162        C444   1.439       .  S
C163        H165   1.082       .  S
N166        N167   1.324       .  A
N166        C170   1.345       .  A
N167        C168   1.346       .  A
C168        C169   1.380       .  A
C168        H171   1.082       .  S
C169        C170   1.378       .  A
C169        C439   1.437       .  S
C170        H172   1.082       .  S
N173        N174   1.323       .  A
N173        C177   1.348       .  A
N173       Cu181   2.078       .  S
N174        C175   1.344       .  A
N174       Cu180   2.077   1_455  S
C175        C176   1.379       .  A
C175        H178   1.082       .  S
C176        C177   1.381       .  A
C176        C437   1.439       .  S
C177        H179   1.082       .  S
Cu180       N183   2.077       .  S
Cu181       N191   2.079       .  S
Cu182       N184   2.073       .  S
Cu182       N190   2.073       .  S
N183        N184   1.323       .  A
N183        C187   1.344       .  A
N184        C185   1.347       .  A
C185        C186   1.380       .  A
C185        H188   1.082       .  S
C186        C187   1.380       .  A
C186        C436   1.439       .  S
C187        H189   1.082       .  S
N190        N191   1.324   1_655  A
N190        C194   1.345       .  A
N191        C192   1.346       .  A
C192        C193   1.380   1_455  A
C192        H195   1.082       .  S
C193        C194   1.378       .  A
C193        C434   1.438       .  S
C194        H196   1.082       .  S
C197        C435   1.468   1_565  S
C197        C442   1.469   1_564  S
C197        C446   1.469   1_554  S
C197        C449   1.469       .  S
C198        C438   1.469   1_565  S
C198        C443   1.468   1_564  S
C198        C448   1.469   1_554  S
C198        C452   1.469       .  S
C199        C200   1.347       .  D
C199        C430   1.444       .  S
C199        C431   1.443       .  S
C200        C425   1.443       .  S
C200        C428   1.444       .  S
C201        C202   1.347       .  D
C201        C420   1.443       .  S
C201        C423   1.444       .  S
C202        C418   1.444       .  S
C202        C422   1.443       .  S
N203        N204   1.321       .  A
N203        C207   1.348       .  A
N203       Cu211   2.078       .  S
N204        C205   1.341       .  A
N204       Cu210   2.054   1_455  S
C205        C206   1.375       .  A
C205        H208   1.082       .  S
C206        C207   1.383       .  A
C206        C417   1.434       .  S
C207        H209   1.082       .  S
Cu210       N213   2.054       .  S
Cu211       N221   2.079   1_455  S
Cu212       N214   2.080       .  S
Cu212       N220   2.082       .  S
N213        N214   1.322       .  A
N213        C217   1.340       .  A
N214        C215   1.349       .  A
C215        C216   1.383       .  A
C215        H218   1.082       .  S
C216        C217   1.375       .  A
C216        C429   1.434       .  S
C217        H219   1.083       .  S
N220        N221   1.325       .  A
N220        C224   1.346       .  A
N221        C222   1.346   1_655  A
C222        C223   1.378   1_455  A
C222        H225   1.082       .  S
C223        C224   1.379       .  A
C223        C433   1.438       .  S
C224        H226   1.082       .  S
N227        N228   1.321       .  A
N227        C231   1.350       .  A
N227       Cu235   2.081       .  S
N228        C229   1.338       .  A
N228       Cu234   2.045       .  S
C229        C230   1.373       .  A
C229        H232   1.083       .  S
C230        C231   1.384       .  A
C230        C419   1.432       .  S
C231        H233   1.082       .  S
Cu234       N237   2.045       .  S
Cu235       N245   2.084       .  S
Cu236       N238   2.077       .  S
Cu236       N244   2.080       .  S
N237        N238   1.321       .  A
N237        C241   1.339       .  A
N238        C239   1.349       .  A
C239        C240   1.384       .  A
C239        H242   1.082       .  S
C240        C241   1.373       .  A
C240        C426   1.432       .  S
C241        H243   1.083       .  S
N244        N245   1.326       .  A
N244        C248   1.345       .  A
N245        C246   1.346       .  A
C246        C247   1.379       .  A
C246        H249   1.082       .  S
C247        C248   1.378       .  A
C247        C440   1.437       .  S
C248        H250   1.082       .  S
N251        N252   1.320       .  A
N251        C255   1.349       .  A
N251       Cu259   2.077       .  S
N252        C253   1.338       .  A
N252       Cu258   2.043   1_455  S
C253        C254   1.373       .  A
C253        H256   1.083       .  S
C254        C255   1.384       .  A
C254        C421   1.431       .  S
C255        H257   1.082       .  S
Cu258       N261   2.043       .  S
Cu259       N269   2.080       .  S
Cu260       N262   2.081       .  S
Cu260       N268   2.084       .  S
N261        N262   1.321       .  A
N261        C265   1.338       .  A
N262        C263   1.350       .  A
C263        C264   1.384       .  A
C263        H266   1.082       .  S
C264        C265   1.372       .  A
C264        C432   1.432       .  S
C265        H267   1.083       .  S
N268        N269   1.326   1_655  A
N268        C272   1.346       .  A
N269        C270   1.345       .  A
C270        C271   1.378   1_455  A
C270        H273   1.082       .  S
C271        C272   1.379       .  A
C271        C415   1.437       .  S
C272        H274   1.082       .  S
N275        N276   1.321       .  A
N275        C279   1.348       .  A
N275       Cu283   2.076       .  S
N276        C277   1.340       .  A
N276       Cu282   2.052       .  S
C277        C278   1.375       .  A
C277        H280   1.082       .  S
C278        C279   1.383       .  A
C278        C427   1.433       .  S
C279        H281   1.082       .  S
Cu282       N285   2.052       .  S
Cu283       N293   2.078       .  S
Cu284       N286   2.080       .  S
Cu284       N292   2.082       .  S
N285        N286   1.322       .  A
N285        C289   1.340       .  A
N286        C287   1.349       .  A
C287        C288   1.384       .  A
C287        H290   1.082       .  S
C288        C289   1.374       .  A
C288        C424   1.434       .  S
C289        H291   1.083       .  S
N292        N293   1.326       .  A
N292        C296   1.346       .  A
N293        C294   1.345       .  A
C294        C295   1.378       .  A
C294        H297   1.082       .  S
C295        C296   1.379       .  A
C295        C413   1.437       .  S
C296        H298   1.082       .  S
N299        N300   1.323       .  A
N299        C303   1.348       .  A
N299       Cu307   2.075       .  S
N300        C301   1.345       .  A
N300       Cu306   2.079       .  S
C301        C302   1.380       .  A
C301        H304   1.082       .  S
C302        C303   1.381       .  A
C302        C409   1.439       .  S
C303        H305   1.082       .  S
Cu306       N309   2.079       .  S
Cu307       N317   2.076       .  S
Cu308       N310   2.074       .  S
Cu308       N316   2.075       .  S
N309        N310   1.323       .  A
N309        C313   1.345       .  A
N310        C311   1.347       .  A
C311        C312   1.380       .  A
C311        H314   1.082       .  S
C312        C313   1.380       .  A
C312        C412   1.439       .  S
C313        H315   1.082       .  S
N316        N317   1.324       .  A
N316        C320   1.346       .  A
N317        C318   1.346       .  A
C318        C319   1.379       .  A
C318        H321   1.082       .  S
C319        C320   1.379       .  A
C319        C458   1.437       .  S
C320        H322   1.082       .  S
N323        N324   1.323       .  A
N323        C327   1.347       .  A
N323       Cu331   2.073       .  S
N324        C325   1.344       .  A
N324       Cu330   2.076   1_455  S
C325        C326   1.379       .  A
C325        H328   1.081       .  S
C326        C327   1.380       .  A
C326        C407   1.438       .  S
C327        H329   1.082       .  S
Cu330       N333   2.076       .  S
Cu331       N341   2.074       .  S
Cu332       N334   2.073       .  S
Cu332       N340   2.073       .  S
N333        N334   1.323       .  A
N333        C337   1.344       .  A
N334        C335   1.348       .  A
C335        C336   1.380       .  A
C335        H338   1.082       .  S
C336        C337   1.380       .  A
C336        C406   1.438       .  S
C337        H339   1.081       .  S
N340        N341   1.324   1_655  A
N340        C344   1.345       .  A
N341        C342   1.345       .  A
C342        C343   1.379   1_455  A
C342        H345   1.082       .  S
C343        C344   1.379       .  A
C343        C454   1.436       .  S
C344        H346   1.082       .  S
N347        N348   1.323       .  A
N347        C351   1.348       .  A
N347       Cu355   2.078       .  S
N348        C349   1.344       .  A
N348       Cu354   2.077       .  S
C349        C350   1.379       .  A
C349        H352   1.082       .  S
C350        C351   1.381       .  A
C350        C401   1.439       .  S
C351        H353   1.082       .  S
Cu354       N357   2.077       .  S
Cu355       N365   2.078       .  S
Cu356       N358   2.071       .  S
Cu356       N364   2.072       .  S
N357        N358   1.323       .  A
N357        C361   1.345       .  A
N358        C359   1.347       .  A
C359        C360   1.380       .  A
C359        H362   1.082       .  S
C360        C361   1.380       .  A
C360        C403   1.438       .  S
C361        H363   1.082       .  S
N364        N365   1.324       .  A
N364        C368   1.345       .  A
N365        C366   1.346       .  A
C366        C367   1.380       .  A
C366        H369   1.082       .  S
C367        C368   1.378       .  A
C367        C414   1.437       .  S
C368        H370   1.082       .  S
N371        N372   1.323       .  A
N371        C375   1.348       .  A
N371       Cu379   2.078       .  S
N372        C373   1.345       .  A
N372       Cu378   2.080   1_455  S
C373        C374   1.380       .  A
C373        H376   1.081       .  S
C374        C375   1.381       .  A
C374        C399   1.440       .  S
C375        H377   1.082       .  S
Cu378       N381   2.080       .  S
Cu379       N389   2.078       .  S
Cu380       N382   2.071       .  S
Cu380       N388   2.072       .  S
N381        N382   1.323       .  A
N381        C385   1.345       .  A
N382        C383   1.347       .  A
C383        C384   1.380       .  A
C383        H386   1.082       .  S
C384        C385   1.381       .  A
C384        C398   1.439       .  S
C385        H387   1.081       .  S
N388        N389   1.324   1_655  A
N388        C392   1.345       .  A
N389        C390   1.346       .  A
C390        C391   1.380   1_455  A
C390        H393   1.082       .  S
C391        C392   1.378       .  A
C391        C416   1.437       .  S
C392        H394   1.082       .  S
C395        C397   1.469       .  S
C395        C402   1.469   1_554  S
C395        C405   1.468   1_554  S
C395        C411   1.469       .  S
C396        C400   1.470       .  S
C396        C404   1.468   1_554  S
C396        C408   1.468   1_554  S
C396        C410   1.469       .  S
C397        C398   1.208       .  T
C399        C400   1.209       .  T
C401        C402   1.208       .  T
C403        C404   1.207       .  T
C405        C406   1.207       .  T
C407        C408   1.207       .  T
C409        C410   1.208       .  T
C411        C412   1.208       .  T
C413        C414   1.206       .  T
C415        C416   1.206       .  T
C417        C418   1.204       .  T
C419        C420   1.204       .  T
C421        C422   1.203       .  T
C423        C424   1.204       .  T
C425        C426   1.203       .  T
C427        C428   1.204       .  T
C429        C430   1.204       .  T
C431        C432   1.203       .  T
C433        C434   1.206       .  T
C435        C436   1.208       .  T
C437        C438   1.208       .  T
C439        C440   1.206       .  T
C441        C442   1.209       .  T
C443        C444   1.208       .  T
C445        C446   1.208       .  T
C447        C448   1.208       .  T
C449        C450   1.208       .  T
C451        C452   1.208       .  T
C453        C454   1.205       .  T
C455        C456   1.205       .  T
C457        C458   1.206       .  T
C459        C460   1.206       .  T
C461        C462   1.204       .  T
C463        C464   1.204       .  T
C465        C466   1.204       .  T
C467        C468   1.203       .  T
C469        C470   1.204       .  T
C471        C472   1.204       .  T
C473        C474   1.204       .  T
C475        C476   1.203       .  T
