geometry optimzed in LAMMPS
_audit_creation_date              2020-11-30 
_audit_creation_method            'lammps2cif' 
_symmetry_space_group_name_H-M    'P1' 
_symmetry_Int_Tables_number       1 
_symmetry_cell_setting            triclinic 
loop_ 
_symmetry_equiv_pos_as_xyz 
  x,y,z 
_cell_length_a                    43.47812168 
_cell_length_b                    43.45362836163356 
_cell_length_c                    24.861052137446677 
_cell_angle_alpha                 90.73252402843859 
_cell_angle_beta                  89.42205938577045 
_cell_angle_gamma                 119.7853831972956 
loop_ 
_atom_site_label 
_atom_site_type_symbol 
_atom_site_fract_x 
_atom_site_fract_y 
_atom_site_fract_z 
_atom_site_charge 
C1          C  0.00273183  0.07006840  0.66742405     0.03200
C2          C  0.02856509  0.06628714  0.69631725    -0.13000
C3          C  0.06064993  0.07303799  0.67149096     0.00700
C4          C  0.06664596  0.08442818  0.61757356    -0.11500
C5          C  0.04139787  0.08890569  0.58864923     0.03200
C6          C  0.00930955  0.08079186  0.61355368    -0.10900
H7          H  0.02362743  0.05794342  0.73788802     0.08700
H8          H  0.09160599  0.09090269  0.59840217     0.06300
H9          H  0.99023427  0.08498807  0.59183959     0.06100
C10         C  0.00172387  0.37835420  0.66066274     0.03200
C11         C  0.00580623  0.37684459  0.60477882    -0.13000
C12         C  0.03457303  0.40445085  0.57792397     0.00700
C13         C  0.05831440  0.43497487  0.60656416    -0.11500
C14         C  0.05550053  0.43713336  0.66237886     0.03200
C15         C  0.02721612  0.40852895  0.68959082    -0.10900
H16         H  0.98809417  0.35292044  0.58275187     0.08700
H17         H  0.08089413  0.45603285  0.58582131     0.06300
H18         H  0.02496417  0.40994209  0.73287924     0.06100
C19         C  0.44292455  0.46647110  0.05142141     0.03200
C20         C  0.42672872  0.43002188  0.06349769    -0.13000
C21         C  0.44718509  0.41287474  0.06014581     0.00700
C22         C  0.48364888  0.43460991  0.07097340    -0.11500
C23         C  0.99888128  0.47202405  0.05764325     0.03200
C24         C  0.47599996  0.98798614  0.05654031    -0.10900
H25         H  0.39832738  0.41485019  0.06000595     0.08700
H26         H  0.00372487  0.42714228  0.07600827     0.06300
H27         H  0.99083447  0.01877508  0.04712925     0.06100
O28         O  0.33952324  0.02084581  0.67631627    -0.85300
O29         O  0.39469730  0.08806491  0.68667899    -0.82400
C30         C  0.42143080  0.11478108  0.70568885     0.98100
O31         O  0.44473858  0.11075251  0.72898297    -0.82400
O32         O  0.40505288  0.08503328  0.82305940    -0.85000
C33         C  0.38226115  0.06257034  0.85485627     1.02700
O34         O  0.36818980  0.02944832  0.84593675    -0.77800
O35         O  0.32580913  0.00439759  0.76003445    -0.78000
C36         C  0.31760847  0.01104257  0.71512869     1.02600
O37         O  0.39051607  0.99626422  0.65799708    -0.85300
O38         O  0.44575546  0.06363892  0.66214164    -0.82400
C39         C  0.46991554  0.06262140  0.68961312     0.98200
O40         O  0.46705178  0.05947438  0.74010601    -0.82400
O41         O  0.43557410  0.04378340  0.84244334    -0.85000
C42         C  0.42133109  0.01092761  0.84904477     1.02600
O43         O  0.40270867  0.99065534  0.81200228    -0.77800
O44         O  0.35940964  0.46367093  0.72884622    -0.78000
C45         C  0.37474878  0.46629338  0.68422255     1.02600
Cr46       Cr  0.39293956  0.04182030  0.67615785     1.93700
Cr47       Cr  0.43525037  0.07185608  0.78012613     1.93200
Cr48       Cr  0.36637370  0.99993312  0.78261350     1.39100
O49         O  0.39764884  0.03751266  0.74612938    -1.23100
O50         O  0.39733156  0.24916612  0.68366355    -0.85300
O51         O  0.34276723  0.26159561  0.67752055    -0.82400
C52         C  0.32074161  0.25111970  0.71583291     0.98100
O53         O  0.32899737  0.26706320  0.76051135    -0.82400
O54         O  0.37215728  0.28253316  0.84638260    -0.85000
C55         C  0.38651566  0.26387798  0.85587345     1.02700
O56         O  0.40930327  0.26340424  0.82360928    -0.77800
O57         O  0.44766932  0.27557126  0.72505627    -0.78000
C58         C  0.42412722  0.24875888  0.70090710     1.02600
O59         O  0.44761306  0.32419955  0.65907654    -0.85300
O60         O  0.39161085  0.33581041  0.65813058    -0.82400
C61         C  0.37700577  0.35054909  0.68329982     0.98200
O62         O  0.36524995  0.34146298  0.73065081    -0.82400
O63         O  0.40818028  0.35560312  0.81888133    -0.85000
C64         C  0.42930607  0.35381700  0.85124555     1.02600
O65         O  0.44234022  0.33463931  0.84015270    -0.77800
O66         O  0.47093489  0.34919398  0.73693713    -0.78000
C67         C  0.47185359  0.34969184  0.68607657     1.02600
Cr68       Cr  0.39542371  0.29358276  0.67563914     1.93700
Cr69       Cr  0.37112130  0.31101506  0.78499061     1.93200
Cr70       Cr  0.43934564  0.30560825  0.77771577     1.39100
O71         O  0.40142566  0.30331842  0.74614306    -1.23100
O72         O  0.18720360  0.08916693  0.69917470    -0.85300
O73         O  0.17142227  0.02030622  0.68615291    -0.82400
C74         C  0.18280843  0.00935556  0.72376642     0.98100
O75         O  0.16834522  0.00334039  0.76943653    -0.82400
O76         O  0.15055413  0.02732415  0.85837825    -0.85000
C77         C  0.17096719  0.05999766  0.86827976     1.02700
O78         O  0.17157570  0.08371723  0.83811265    -0.77800
O79         O  0.16168102  0.11334243  0.74438399    -0.78000
C80         C  0.18846881  0.11641086  0.71974961     1.02600
O81         O  0.11334485  0.06862909  0.67404571    -0.85300
O82         O  0.09762861  0.99933560  0.66855330    -0.82400
C83         C  0.08375831  0.46852728  0.69111123     0.98200
O84         O  0.09453645  0.46462357  0.73610619    -0.82400
O85         O  0.07782949  0.99195833  0.82461885    -0.85000
C86         C  0.07835160  0.01350944  0.85926080     1.02600
O87         O  0.09929173  0.04605192  0.85418933    -0.77800
O88         O  0.08706734  0.06539670  0.75160773    -0.78000
C89         C  0.08815616  0.06853086  0.70080874     1.02600
Cr90       Cr  0.14154687  0.04393455  0.68789330     1.93700
Cr91       Cr  0.12351591  0.00025821  0.79350139     1.93200
Cr92       Cr  0.12983355  0.07410619  0.79347254     1.39100
O93         O  0.13160658  0.03902166  0.75816320    -1.23100
C94         C  0.37356093  0.37882117  0.65577304     0.03200
C95         C  0.36957538  0.37707009  0.59935844    -0.13000
C96         C  0.36613594  0.40320526  0.57202869     0.00700
C97         C  0.36994864  0.43281587  0.60090855    -0.11500
C98         C  0.37273916  0.43477859  0.65696813     0.03200
C99         C  0.37395279  0.40729091  0.68470683    -0.10900
H100        H  0.36640876  0.35396909  0.57740711     0.08700
H101        H  0.36768362  0.45332294  0.57988812     0.06300
H102        H  0.37653263  0.40873033  0.72809308     0.06100
C103        C  0.22745833  0.40573936  0.32669928     0.03200
C104        C  0.19784674  0.40386927  0.35352457    -0.13000
C105        C  0.17153545  0.40644050  0.32411770     0.00700
C106        C  0.17591534  0.41254272  0.26849601    -0.11500
C107        C  0.20648494  0.41698152  0.24222859     0.03200
C108        C  0.23125221  0.41212205  0.27117478    -0.10900
H109        H  0.19468151  0.39928347  0.39647630     0.08700
H110        H  0.15683980  0.41669585  0.24665872     0.06300
H111        H  0.25491440  0.41550855  0.25085480     0.06100
C112        C  0.03964090  0.21837064  0.33805149     0.03200
C113        C  0.53335219  0.21376010  0.27777897    -0.13000
C114        C  0.53067093  0.23977364  0.24807114     0.00700
C115        C  0.53501434  0.27017804  0.27470983    -0.11500
C116        C  0.04066780  0.27536556  0.33445166     0.03200
C117        C  0.04389284  0.24937993  0.36373597    -0.10900
H118        H  0.52957786  0.19000896  0.25721472     0.08700
H119        H  0.53188559  0.28962567  0.25225048     0.06300
H120        H  0.04955620  0.25321447  0.40639355     0.06100
C121        C  0.14723115  0.33682261  0.71746458     0.03200
C122        C  0.12927074  0.29976975  0.71961621    -0.13000
C123        C  0.14893710  0.28237700  0.71829039     0.00700
C124        C  0.18438707  0.30085744  0.73415994    -0.11500
C125        C  0.20353302  0.33815479  0.72852802     0.03200
C126        C  0.18327223  0.35550809  0.73172737    -0.10900
H127        H  0.10248834  0.28533488  0.70403864     0.08700
H128        H  0.19783557  0.28564041  0.73359078     0.06300
H129        H  0.19588027  0.38391385  0.72947914     0.06100
O130        O  0.01868553  0.38304457  0.35517656    -0.85300
O131        O  0.08640774  0.43698425  0.34365988    -0.82400
C132        C  0.09584896  0.45962448  0.38143701     0.98100
O133        O  0.10178279  0.45259132  0.42770770    -0.82400
O134        O  0.07817198  0.41138697  0.51554925    -0.85000
C135        C  0.04519905  0.39769429  0.52477857     1.02700
O136        O  0.02243827  0.37498400  0.49295234    -0.77800
O137        O  0.49505378  0.33353236  0.39360305    -0.78000
C138        C  0.49186989  0.35702379  0.36944630     1.02600
O139        O  0.04204832  0.33100874  0.33304706    -0.85300
O140        O  0.10999725  0.38568020  0.32789928    -0.82400
C141        C  0.13962462  0.40350799  0.35066990     0.98200
O142        O  0.14252374  0.41938523  0.39486557    -0.82400
O143        O  0.11632589  0.37636977  0.48140808    -0.85000
C144        C  0.09601038  0.35690756  0.51775977     1.02600
O145        O  0.06319595  0.34378985  0.51255792    -0.77800
O146        O  0.04629851  0.31080912  0.41173737    -0.78000
C147        C  0.04357850  0.30748785  0.36120237     1.02600
Cr148      Cr  0.06459397  0.38389544  0.34539759     1.93700
Cr149      Cr  0.10675781  0.41248137  0.45153316     1.93200
Cr150      Cr  0.03472014  0.34370561  0.45071347     1.39100
O151        O  0.06903924  0.38053394  0.41571562    -1.23100
O152        O  0.08780300  0.10498652  0.35099690    -0.85300
O153        O  0.01941688  0.09059120  0.36664667    -0.82400
C154        C  0.49208575  0.08678909  0.38017988     0.98100
O155        O  0.49498253  0.11319282  0.40606522    -0.82400
O156        O  0.02721194  0.10740666  0.50640486    -0.85000
C157        C  0.05084993  0.10745295  0.53624490     1.02700
O158        O  0.08346227  0.12618231  0.52473091    -0.77800
O159        O  0.10444171  0.10598640  0.43420035    -0.78000
C160        C  0.09841290  0.09266825  0.38763725     1.02600
O161        O  0.11015980  0.17887987  0.33459320    -0.85300
O162        O  0.04123798  0.16431260  0.34152671    -0.82400
C163        C  0.04297616  0.19036512  0.36791728     0.98200
O164        O  0.04682579  0.19183867  0.41861376    -0.82400
O165        O  0.06749585  0.17991061  0.52049242    -0.85000
C166        C  0.10040965  0.19937100  0.52475597     1.02600
O167        O  0.12064862  0.19822244  0.48937500    -0.77800
O168        O  0.14401930  0.17912498  0.40012202    -0.78000
C169        C  0.14027334  0.19106949  0.35609852     1.02600
Cr170      Cr  0.06515054  0.13550047  0.35439037     1.93700
Cr171      Cr  0.03747691  0.14898370  0.46097667     1.93200
Cr172      Cr  0.10985236  0.15176735  0.45867476     1.39100
O173        O  0.07116993  0.14536746  0.42463659    -1.23100
O174        O  0.34438292  0.43657940  0.34325574    -0.85300
O175        O  0.35754665  0.38293725  0.34937185    -0.82400
C176        C  0.35863747  0.35629728  0.36535501     0.98100
O177        O  0.33208549  0.33246018  0.38940004    -0.82400
O178        O  0.34786720  0.37234000  0.48686613    -0.85000
C179        C  0.34842300  0.39562310  0.51916596     1.02700
O180        O  0.32940486  0.40981343  0.51140619    -0.77800
O181        O  0.34067152  0.45180191  0.42623298    -0.78000
C182        C  0.35563283  0.45919925  0.38098228     1.02600
O183        O  0.26971728  0.38697462  0.32864207    -0.85300
O184        O  0.28181127  0.33117182  0.32893232    -0.82400
C185        C  0.25766859  0.30650346  0.35718476     0.98200
O186        O  0.25894250  0.30854094  0.40797559    -0.82400
O187        O  0.27776657  0.33921499  0.51078035    -0.85000
C188        C  0.26009950  0.35341734  0.52478353     1.02600
O189        O  0.25559466  0.37258474  0.49176198    -0.77800
O190        O  0.26497459  0.41355741  0.40184981    -0.78000
C191        C  0.25525563  0.40159449  0.35456207     1.02600
Cr192      Cr  0.31255549  0.38382734  0.34344117     1.93700
Cr193      Cr  0.30395166  0.34126279  0.44513446     1.93200
Cr194      Cr  0.29806734  0.40942899  0.45364724     1.39100
O195        O  0.30473935  0.37867127  0.41413737    -1.23100
C196        C  0.22907730  0.27450830  0.32958835     0.03200
C197        C  0.23365094  0.26880903  0.27521277    -0.13000
C198        C  0.20875102  0.23830063  0.24761070     0.00700
C199        C  0.17738650  0.21415350  0.27382746    -0.11500
C200        C  0.17204828  0.21895187  0.32833559     0.03200
C201        C  0.19825349  0.24895035  0.35645749    -0.10900
H202        H  0.25793586  0.28727176  0.25488424     0.08700
H203        H  0.15850092  0.19002807  0.25337754     0.06300
H204        H  0.19447268  0.25242242  0.39878032     0.06100
C205        C  0.40029268  0.10800378  0.98949294     0.03200
C206        C  0.40213719  0.10350863  0.93384199    -0.13000
C207        C  0.37539820  0.07365702  0.90748134     0.00700
C208        C  0.34545186  0.04956984  0.93631188    -0.11500
C209        C  0.34329836  0.05285920  0.99195695     0.03200
C210        C  0.37122542  0.08192466  0.01902411    -0.10900
H211        H  0.42585700  0.12176613  0.91211365     0.08700
H212        H  0.32477109  0.02642297  0.91582624     0.06300
H213        H  0.36986596  0.08477657  0.06221072     0.06100
C214        C  0.34547592  0.23712342  0.99352991     0.03200
C215        C  0.37304881  0.23631066  0.02184169    -0.13000
C216        C  0.40320629  0.23967120  0.99433602     0.00700
C217        C  0.40590161  0.24516548  0.93812889    -0.11500
C218        C  0.37920671  0.24718624  0.90973320     0.03200
C219        C  0.34858210  0.24170707  0.93762663    -0.10900
H220        H  0.37078619  0.23264669  0.06501257     0.08700
H221        H  0.42975295  0.24999175  0.91689593     0.06300
H222        H  0.32803021  0.24365850  0.91618755     0.06100
C223        C  0.30164960  0.14614999  0.39169911     0.03200
C224        C  0.33792100  0.16893948  0.40213452    -0.13000
C225        C  0.36114064  0.15585415  0.39093491     0.00700
C226        C  0.34780151  0.11939069  0.39994477    -0.11500
C227        C  0.31146052  0.09627944  0.39128298     0.03200
C228        C  0.28850359  0.10989952  0.40128893    -0.10900
H229        H  0.34869529  0.19719462  0.39824526     0.08700
H230        H  0.36493160  0.10830598  0.39302793     0.06300
H231        H  0.26034761  0.09257142  0.39564321     0.06100
O232        O  0.03091400  0.25929597  0.02689853    -0.85300
O233        O  0.01488832  0.19073557  0.01260874    -0.82400
C234        C  0.02858859  0.18273322  0.05063091     0.98100
O235        O  0.01499751  0.17724873  0.09691839    -0.82400
O236        O  0.99356726  0.19780104  0.18612695    -0.85000
C237        C  0.01220637  0.23037507  0.19832349     1.02700
O238        O  0.01363048  0.25420801  0.16743072    -0.77800
O239        O  0.00571752  0.28400277  0.07187253    -0.78000
C240        C  0.03230520  0.28675447  0.04678420     1.02600
O241        O  0.45773010  0.23906641  0.99656624    -0.85300
O242        O  0.44100440  0.16947770  0.99354509    -0.82400
C243        C  0.42941056  0.13968389  0.01566841     0.98200
O244        O  0.44284819  0.13639145  0.05860472    -0.82400
O245        O  0.42631897  0.16078555  0.15116139    -0.85000
C246        C  0.42507248  0.18317135  0.18247838     1.02600
O247        O  0.44348923  0.21569277  0.17402601    -0.77800
O248        O  0.43160458  0.23492315  0.07397157    -0.78000
C249        C  0.43212138  0.23768974  0.02334494     1.02600
Cr250      Cr  0.98555100  0.21475694  0.01456330     1.93700
Cr251      Cr  0.47170901  0.17152739  0.11585779     1.93200
Cr252      Cr  0.47451782  0.24431737  0.11570755     1.39100
O253        O  0.47708016  0.20958652  0.08071007    -1.23100
O254        O  0.26145044  0.43753526  0.01155265    -0.85300
O255        O  0.19334254  0.42204140  0.02148308    -0.82400
C256        C  0.16534711  0.42024393  0.03910416     0.98100
O257        O  0.16742968  0.44697069  0.06281097    -0.82400
O258        O  0.19402295  0.43438399  0.15793659    -0.85000
C259        C  0.21702203  0.43505478  0.18984248     1.02700
O260        O  0.25001983  0.45515533  0.18155050    -0.77800
O261        O  0.27960811  0.44233495  0.09447296    -0.78000
C262        C  0.27344493  0.42725671  0.04919864     1.02600
O263        O  0.28282118  0.51168473  0.99575467    -0.85300
O264        O  0.21402977  0.49673910  0.99850763    -0.82400
C265        C  0.21324698  0.52115577  0.02661269     0.98200
O266        O  0.21522733  0.52106522  0.07736708    -0.82400
O267        O  0.23197963  0.00751869  0.17909390    -0.85000
C268        C  0.26458334  0.02782260  0.18571716     1.02600
O269        O  0.28566285  0.02932541  0.14973560    -0.77800
O270        O  0.31538024  0.51672146  0.06624047    -0.78000
C271        C  0.31214659  0.52661214  0.02007229     1.02600
Cr272      Cr  0.23814456  0.46778112  0.01247417     1.93700
Cr273      Cr  0.20493836  0.47725917  0.11598270     1.93200
Cr274      Cr  0.27942038  0.48511178  0.12037218     1.39100
O275        O  0.24134994  0.47669740  0.08284201    -1.23100
O276        O  0.19232116  0.21588839  0.02869475    -0.85300
O277        O  0.26043657  0.27028093  0.01812971    -0.82400
C278        C  0.27176727  0.29254864  0.05652381     0.98100
O279        O  0.27843808  0.28408437  0.10118251    -0.82400
O280        O  0.25238790  0.24180845  0.18761382    -0.85000
C281        C  0.21938960  0.22866693  0.19639093     1.02700
O282        O  0.19650414  0.20545681  0.16511868    -0.77800
O283        O  0.16954598  0.16577392  0.06999045    -0.78000
C284        C  0.16543752  0.18918481  0.04749829     1.02600
O285        O  0.21599206  0.16428561  0.00195853    -0.85300
O286        O  0.28424088  0.21937262  0.99770575    -0.82400
C287        C  0.31380286  0.23451009  0.02150527     0.98200
O288        O  0.31697306  0.24804823  0.06792627    -0.82400
O289        O  0.29031334  0.20621822  0.15632229    -0.85000
C290        C  0.26821468  0.18438544  0.18881501     1.02600
O291        O  0.23572779  0.17230175  0.18193190    -0.77800
O292        O  0.21922097  0.14175734  0.07923172    -0.78000
C293        C  0.21617337  0.13945333  0.02858889     1.02600
Cr294      Cr  0.23863525  0.21701225  0.01736602     1.93700
Cr295      Cr  0.28136567  0.24251396  0.12439476     1.93200
Cr296      Cr  0.20834021  0.17446841  0.12067779     1.39100
O297        O  0.24333074  0.21172891  0.08732829    -1.23100
C298        C  0.21083500  0.10685580  0.99990717     0.03200
C299        C  0.19864182  0.10079603  0.94657949    -0.13000
C300        C  0.19108433  0.06946805  0.91925626     0.00700
C301        C  0.19721676  0.04435052  0.94501958    -0.11500
C302        C  0.20945331  0.04954590  0.99831006     0.03200
C303        C  0.21602564  0.08096145  0.02567532    -0.10900
H304        H  0.19265496  0.11943384  0.92748486     0.08700
H305        H  0.19090600  0.01986858  0.92418214     0.06300
H306        H  0.22506872  0.08521276  0.06695211     0.06100
C307        C  0.29356341  0.38768722  0.08726379    -0.12200
C308        C  0.27893465  0.39583838  0.04323244     0.04800
C309        C  0.26622054  0.37142752  0.99946065    -0.07500
C310        C  0.26446553  0.33812680  0.00408748    -0.08300
C311        C  0.27658158  0.32905448  0.05044511    -0.02800
C312        C  0.29261375  0.35522220  0.09137437     0.04000
N313        N  0.30715640  0.34919488  0.13880870     0.66500
H314        H  0.30474355  0.40618341  0.12066043     0.15400
H315        H  0.25354602  0.31923829  0.97115050     0.15100
N316        N  0.25570126  0.38006085  0.94996990     0.74200
O317        O  0.34036054  0.36400806  0.14368193    -0.39200
O318        O  0.28793768  0.33758636  0.18025014    -0.39200
O319        O  0.27707923  0.40807668  0.92567801    -0.39900
O320        O  0.22869683  0.35682238  0.92536651    -0.40000
C321        C  0.06983253  0.16267982  0.08164838    -0.12200
C322        C  0.06157894  0.18050507  0.04265500     0.04800
C323        C  0.08710688  0.19926136  0.00206312    -0.07500
C324        C  0.12080006  0.20192226  0.00410098    -0.08300
C325        C  0.12920218  0.18487072  0.04433320    -0.02800
C326        C  0.10276970  0.16436346  0.08262541     0.04000
N327        N  0.10955730  0.14682228  0.12527180     0.66500
H328        H  0.05080476  0.14789027  0.11296425     0.15400
H329        H  0.14039371  0.21714161  0.97370908     0.15100
N330        N  0.07967145  0.21620975  0.95911546     0.74200
O331        O  0.11558846  0.16027265  0.17190298    -0.39200
O332        O  0.10198011  0.11495557  0.11909451    -0.39200
O333        O  0.10093156  0.24838691  0.94902822    -0.39900
O334        O  0.05626493  0.19752327  0.92499214    -0.40000
C335        C  0.10057715  0.38542542  0.05982455    -0.12200
C336        C  0.13039585  0.38698535  0.03445717     0.04800
C337        C  0.12667153  0.35574526  0.01003161    -0.07500
C338        C  0.09435602  0.32390894  0.01337939    -0.08300
C339        C  0.06502232  0.32197938  0.04074919    -0.02800
C340        C  0.06832678  0.35351882  0.06354526     0.04000
N341        N  0.03984190  0.35354593  0.09275644     0.66500
H342        H  0.10255647  0.40886654  0.07903462     0.15400
H343        H  0.09255454  0.30032113  0.99514020     0.15100
N344        N  0.15562252  0.35543413  0.98286842     0.74200
O345        O  0.03628534  0.34676375  0.14238256    -0.39200
O346        O  0.02231261  0.36616756  0.07149041    -0.39200
O347        O  0.16950189  0.33865783  0.00276328    -0.39900
O348        O  0.16308456  0.36649666  0.93520410    -0.40000
C349        C  0.27152433  0.13010259  0.30171613    -0.12200
C350        C  0.28650462  0.15531062  0.34407807     0.04800
C351        C  0.29435397  0.19050826  0.33375203    -0.07500
C352        C  0.29155106  0.20021779  0.28096301    -0.08300
C353        C  0.27906555  0.17517014  0.23882588    -0.02800
C354        C  0.26780155  0.13959857  0.24986901     0.04000
N355        N  0.25288531  0.11280240  0.20855787     0.66500
H356        H  0.26442540  0.10282735  0.30707080     0.15400
H357        H  0.29721790  0.22704561  0.27330348     0.15100
N358        N  0.30456422  0.21635354  0.37630207     0.74200
O359        O  0.26766168  0.11798463  0.16301273    -0.39200
O360        O  0.22616886  0.08303587  0.21856766    -0.39200
O361        O  0.32691972  0.24846934  0.36767746    -0.39900
O362        O  0.28935036  0.20762440  0.42155560    -0.40000
C363        C  0.25487972  0.03071967  0.28403474    -0.12200
C364        C  0.27761745  0.04448391  0.23906484     0.04800
C365        C  0.31345354  0.06956057  0.24764282    -0.07500
C366        C  0.32512484  0.08180892  0.29961622    -0.08300
C367        C  0.30180739  0.07104430  0.34428733    -0.02800
C368        C  0.26678408  0.04308607  0.33645374     0.04000
N369        N  0.24310015  0.02738241  0.38115054     0.66500
H370        H  0.22782409  0.00949978  0.27869963     0.15400
H371        H  0.35226654  0.10236628  0.30337063     0.15100
N372        N  0.33820189  0.08420658  0.20396507     0.74200
O373        O  0.21072785  0.01819137  0.37703435    -0.39200
O374        O  0.25396101  0.02025037  0.42354216    -0.39200
O375        O  0.33350660  0.10168100  0.16798346    -0.39900
O376        O  0.36698182  0.08373107  0.20512993    -0.40000
C377        C  0.41997217  0.16103914  0.27437668    -0.12200
C378        C  0.40656522  0.17355512  0.23421247     0.04800
C379        C  0.38580587  0.18870724  0.24934586    -0.07500
C380        C  0.37584682  0.18779907  0.30287944    -0.08300
C381        C  0.38544355  0.17133546  0.34296725    -0.02800
C382        C  0.41084262  0.16115013  0.32889589     0.04000
N383        N  0.42769878  0.15134904  0.36931308     0.66500
H384        H  0.43949074  0.15339449  0.26363446     0.15400
H385        H  0.35841249  0.19818074  0.31136637     0.15100
N386        N  0.37500151  0.20565592  0.21065270     0.74200
O387        O  0.43821371  0.12963156  0.35836245    -0.39200
O388        O  0.43449207  0.16635637  0.41491280    -0.39200
O389        O  0.35936680  0.18944560  0.16818070    -0.39900
O390        O  0.38004796  0.23647651  0.21973525    -0.40000
C391        C  0.42720092  0.05324490  0.40172994    -0.12200
C392        C  0.45618897  0.05452023  0.37383207     0.04800
C393        C  0.45020365  0.02439857  0.34307410    -0.07500
C394        C  0.41545288  0.49712821  0.33895336    -0.08300
C395        C  0.38842327  0.49433348  0.37371664    -0.02800
C396        C  0.39346165  0.02289057  0.40073626     0.04000
N397        N  0.36501346  0.02351623  0.42924619     0.65600
H398        H  0.43070486  0.07585662  0.42540209     0.15400
H399        H  0.41082158  0.47480565  0.31356330     0.15100
N400        N  0.47848032  0.02361010  0.31448813     0.74200
O401        O  0.36730450  0.02944824  0.47928694    -0.39200
O402        O  0.34329950  0.52555346  0.42287299    -0.39200
O403        O  0.92344319  0.10687003  0.42077051    -0.39900
O404        O  0.48661954  0.54948081  0.26350136    -0.40000
C405        C  0.45166903  0.37559523  0.32764515    -0.12200
C406        C  0.45649004  0.35401263  0.36429117     0.04800
C407        C  0.42770814  0.33110984  0.39750469    -0.07500
C408        C  0.39558533  0.33093470  0.39451924    -0.08300
C409        C  0.39115638  0.35351229  0.35952075    -0.02800
C410        C  0.41938488  0.37546777  0.32478260     0.04000
N411        N  0.41578437  0.39770358  0.28637816     0.66500
H412        H  0.47311394  0.39277333  0.30104539     0.15400
H413        H  0.37457134  0.31426252  0.42217389     0.15100
N414        N  0.43127222  0.30972712  0.43746792     0.74200
O415        O  0.43713743  0.43065782  0.28693892    -0.39200
O416        O  0.39492668  0.38390803  0.24721180    -0.39200
O417        O  0.44127844  0.32220668  0.48419677    -0.39900
O418        O  0.41843862  0.27691452  0.42908156    -0.40000
C419        C  0.12654451  0.02349839  0.40322811    -0.12200
C420        C  0.09984237  0.49515665  0.37309703     0.04800
C421        C  0.07503094  0.50004580  0.34359560    -0.07500
C422        C  0.07868533  0.03378806  0.34287679    -0.08300
C423        C  0.10263090  0.06120517  0.37697495    -0.02800
C424        C  0.12770875  0.05622980  0.40551045     0.04000
N425        N  0.15432089  0.08408397  0.43764029     0.66500
H426        H  0.14514346  0.01986121  0.42727386     0.15400
H427        H  0.05920555  0.03707224  0.32065227     0.15100
N428        N  0.04642086  0.47093614  0.31617303     0.74200
O429        O  0.15293293  0.08161255  0.48823149    -0.39200
O430        O  0.18184041  0.10824149  0.41541558    -0.39200
O431        O  0.01568768  0.45614700  0.33639193    -0.39900
O432        O  0.05123939  0.46179651  0.26988534    -0.40000
C433        C  0.15741370  0.27267273  0.62245488    -0.12200
C434        C  0.14050279  0.25794570  0.67182353     0.04800
C435        C  0.11148414  0.22342274  0.67257118    -0.07500
C436        C  0.09868608  0.20477709  0.62404975    -0.08300
C437        C  0.11469507  0.22021768  0.57451284    -0.02800
C438        C  0.14481711  0.25411636  0.57397942     0.04000
N439        N  0.16117093  0.27093503  0.52433340     0.66500
H440        H  0.17880102  0.29985855  0.62106830     0.15400
H441        H  0.07610516  0.17813849  0.62502239     0.15100
N442        N  0.09474642  0.20731846  0.72221751     0.74200
O443        O  0.14312498  0.27462404  0.48815386    -0.39200
O444        O  0.19329091  0.28057474  0.51546240    -0.39200
O445        O  0.07331899  0.21525929  0.74420801    -0.39900
O446        O  0.10589284  0.19014016  0.74834035    -0.40000
C447        C  0.25056628  0.38184998  0.60557633    -0.12200
C448        C  0.25183748  0.35284585  0.58289596     0.04800
C449        C  0.25407427  0.32879278  0.61863569    -0.07500
C450        C  0.24836318  0.33070527  0.67373560    -0.08300
C451        C  0.23675888  0.35373079  0.69352181    -0.02800
C452        C  0.24586896  0.38377388  0.66130748     0.04000
N453        N  0.25100424  0.41625675  0.68458975     0.66500
H454        H  0.25491003  0.40382442  0.58038781     0.15400
H455        H  0.24914580  0.31126565  0.69951669     0.15100
N456        N  0.26107484  0.30158288  0.59999579     0.74200
O457        O  0.26331072  0.42498997  0.73154916    -0.39200
O458        O  0.24463609  0.43691759  0.65775051    -0.39200
O459        O  0.29209401  0.30638627  0.60343757    -0.39900
O460        O  0.23557022  0.27054838  0.59290461    -0.40000
C461        C  0.15847431  0.36390936  0.62776299    -0.12200
C462        C  0.13572596  0.35123371  0.67278301     0.04800
C463        C  0.10009541  0.34235983  0.66666991    -0.07500
C464        C  0.08739254  0.34322349  0.61541151    -0.08300
C465        C  0.10997871  0.35375880  0.56994333    -0.02800
C466        C  0.14605028  0.36516815  0.57698930     0.04000
N467        N  0.17040851  0.37639285  0.53271606     0.66500
H468        H  0.18488226  0.36962995  0.63028616     0.15400
H469        H  0.05989713  0.33616240  0.61148456     0.15100
N470        N  0.07645234  0.33166799  0.71184761     0.74200
O471        O  0.19464295  0.40834964  0.52974094    -0.39200
O472        O  0.17115699  0.35355706  0.50170810    -0.39200
O473        O  0.08248636  0.35312595  0.75033317    -0.39900
O474        O  0.04732346  0.30294265  0.71011487    -0.40000
C475        C  0.26095984  0.21039182  0.75363190    -0.12200
C476        C  0.28492718  0.21862834  0.71054114     0.04800
C477        C  0.27552150  0.19347988  0.66791533    -0.07500
C478        C  0.24411878  0.16030893  0.67157087    -0.08300
C479        C  0.22091292  0.15200693  0.71566585    -0.02800
C480        C  0.22948481  0.17787874  0.75651482     0.04000
N481        N  0.20800567  0.17061824  0.80370952     0.66500
H482        H  0.26713364  0.22891068  0.78684917     0.15400
H483        H  0.23758565  0.14106125  0.63932933     0.15100
N484        N  0.29733158  0.20084769  0.62089454     0.74200
O485        O  0.21810191  0.16365182  0.84697669    -0.39200
O486        O  0.18403077  0.17894259  0.80516063    -0.39200
O487        O  0.30488972  0.17801638  0.60331006    -0.39900
O488        O  0.30296774  0.22656705  0.59135183    -0.40000
C489        C  0.41228479  0.15940320  0.65629246    -0.12200
C490        C  0.42541756  0.15058031  0.70152851     0.04800
C491        C  0.44046989  0.17557917  0.74391514    -0.07500
C492        C  0.44115260  0.20796790  0.74111612    -0.08300
C493        C  0.42729963  0.21648831  0.69676454    -0.02800
C494        C  0.41379366  0.19246474  0.65295425     0.04000
N495        N  0.40295942  0.20183014  0.60437833     0.66500
H496        H  0.40137043  0.14073182  0.62306281     0.15400
H497        H  0.45124177  0.22600243  0.77525983     0.15100
N498        N  0.45216343  0.16735925  0.79243784     0.74200
O499        O  0.42254095  0.23174535  0.58342409    -0.39200
O500        O  0.37637245  0.17881961  0.57872303    -0.39200
O501        O  0.48260299  0.17053135  0.79411688    -0.39900
O502        O  0.43612866  0.16552321  0.83590530    -0.40000
C503        C  0.25667598  0.98872458  0.75144421    -0.12200
C504        C  0.28150210  0.00727156  0.71057251     0.04800
C505        C  0.27160620  0.02310463  0.66990661    -0.07500
C506        C  0.23851345  0.02187602  0.67282707    -0.08300
C507        C  0.21464365  0.00490495  0.71568088    -0.02800
C508        C  0.22373552  0.98700249  0.75402897     0.04000
N509        N  0.19999645  0.96710321  0.79658735     0.66500
H510        H  0.26286329  0.97537724  0.78246870     0.15400
H511        H  0.23226536  0.03573037  0.64274544     0.15100
N512        N  0.29547044  0.04219182  0.62714202     0.74200
O513        O  0.17503806  0.43735687  0.79120603    -0.39200
O514        O  0.20805382  0.97722818  0.84477378    -0.39200
O515        O  0.29098465  0.02803312  0.58113459    -0.39900
O516        O  0.31775919  0.07466594  0.63326424    -0.40000
C517        C  0.46408407  0.37968233  0.99287706    -0.12200
C518        C  0.43699394  0.38359430  0.01827097     0.04800
C519        C  0.40454341  0.36945928  0.98998318    -0.07500
C520        C  0.40402078  0.36424068  0.93407393    -0.08300
C521        C  0.43376426  0.36730719  0.90696438    -0.02800
C522        C  0.46311770  0.37256374  0.93787749     0.04000
N523        N  0.49244658  0.37101248  0.91412857     0.66500
H524        H  0.99800996  0.40131343  0.00139069     0.15400
H525        H  0.37934102  0.35468082  0.91250287     0.15100
N526        N  0.37165788  0.35744919  0.01792130     0.74200
O527        O  0.02227155  0.41137296  0.88702370    -0.39200
O528        O  0.49639755  0.34465498  0.92304256    -0.39200
O529        O  0.34647603  0.35896750  0.99573435    -0.39900
O530        O  0.36595284  0.34024863  0.06088165    -0.40000
C531        C  0.07587518  0.50593179  0.95826463    -0.12200
C532        C  0.05805145  0.00137382  0.90944994     0.04800
C533        C  0.02103311  0.98409659  0.90967884    -0.07500
C534        C  0.00299211  0.97545396  0.95870409    -0.08300
C535        C  0.02052349  0.48167672  0.00763791    -0.02800
C536        C  0.05755550  0.49707410  0.00760525     0.04000
N537        N  0.07669515  0.50394080  0.05691489     0.66500
H538        H  0.10455606  0.51868998  0.95822399     0.15400
H539        H  0.97436506  0.96221984  0.95817299     0.15100
N540        N  0.00170437  0.97791687  0.86078952     0.74200
O541        O  0.09628696  0.49062503  0.06459889    -0.39200
O542        O  0.07365130  0.52281268  0.09326058    -0.39200
O543        O  0.98501305  0.94709341  0.84088499    -0.39900
O544        O  0.99832936  0.00255014  0.84053428    -0.40000
C545        C  0.40899611  0.45345008  0.96605229    -0.12200
C546        C  0.42711270  0.47785281  0.00792724     0.04800
C547        C  0.43181148  0.01081316  0.00000091    -0.07500
C548        C  0.43321687  0.02186572  0.94688199    -0.08300
C549        C  0.42118270  0.99745587  0.90356060    -0.02800
C550        C  0.40863448  0.46440689  0.91378611     0.04000
N551        N  0.39143387  0.43784788  0.87294721     0.66500
H552        H  0.39773712  0.42543200  0.97183523     0.15400
H553        H  0.44320663  0.04979225  0.93970587     0.15100
N554        N  0.94654180  0.04114881  0.04725850     0.74200
O555        O  0.40976799  0.43240808  0.83850958    -0.39200
O556        O  0.35866712  0.41611115  0.87672496    -0.39200
O557        O  0.97044089  0.07288651  0.03981060    -0.39900
O558        O  0.93122589  0.03240092  0.09243760    -0.40000
C559        C  0.00225290  0.56774190  0.66840271     0.03200
C560        C  0.02808922  0.56394973  0.69706053    -0.13000
C561        C  0.06048647  0.57167798  0.67245901     0.00700
C562        C  0.06682593  0.58387883  0.61903726    -0.11500
C563        C  0.04157198  0.58833556  0.59034493     0.03200
C564        C  0.00917741  0.57942167  0.61499687    -0.10900
H565        H  0.02298527  0.55497559  0.73832875     0.08700
H566        H  0.09203196  0.59100226  0.60014269     0.06300
H567        H  0.99012363  0.58375572  0.59360240     0.06100
C568        C  0.00228908  0.87896694  0.66223683     0.03200
C569        C  0.00587421  0.87705854  0.60619048    -0.13000
C570        C  0.03423512  0.90466246  0.57851811     0.00700
C571        C  0.05804311  0.93545092  0.60663830    -0.11500
C572        C  0.05563580  0.93791073  0.66251234     0.03200
C573        C  0.02777570  0.90943227  0.69038557    -0.10900
H574        H  0.98808779  0.85293205  0.58464292     0.08700
H575        H  0.08037156  0.95649378  0.58544445     0.06300
H576        H  0.02588518  0.91114877  0.73369480     0.06100
C577        C  0.43907881  0.96530765  0.05219700     0.03200
C578        C  0.42558532  0.92913272  0.06379848    -0.13000
C579        C  0.44843394  0.91473799  0.05880495     0.00700
C580        C  0.48428079  0.93834952  0.07077011    -0.11500
C581        C  0.00008601  0.97615259  0.05840809     0.03200
C582        C  0.47993240  0.48693745  0.05676751    -0.10900
H583        H  0.39734485  0.91211057  0.06051638     0.08700
H584        H  0.00329217  0.93060999  0.07806684     0.06300
H585        H  0.98786587  0.51355922  0.04739186     0.06100
O586        O  0.33815713  0.51777762  0.67772162    -0.85300
O587        O  0.39120489  0.58520026  0.68530689    -0.82400
C588        C  0.41755480  0.61317755  0.70177178     0.98100
O589        O  0.44208316  0.61143969  0.72565040    -0.82400
O590        O  0.40382674  0.58648889  0.82148824    -0.85000
C591        C  0.38212875  0.56418123  0.85456757     1.02700
O592        O  0.36944497  0.53105447  0.84726992    -0.77800
O593        O  0.32624250  0.50508960  0.76294187    -0.78000
C594        C  0.31729654  0.51028146  0.71760006     1.02600
O595        O  0.39114842  0.49560269  0.66050069    -0.85300
O596        O  0.44443358  0.56376451  0.66123136    -0.82400
C597        C  0.46914851  0.56399039  0.68884070     0.98200
O598        O  0.46689201  0.56206693  0.73942705    -0.82400
O599        O  0.43652111  0.54686749  0.84191904    -0.85000
C600        C  0.42381328  0.51410345  0.84848081     1.02600
O601        O  0.40484771  0.49320535  0.81219312    -0.77800
O602        O  0.35942573  0.96369405  0.72644331    -0.78000
C603        C  0.37450180  0.96680081  0.68152746     1.02600
Cr604      Cr  0.39167887  0.54037026  0.67640040     1.93700
Cr605      Cr  0.43458822  0.57383147  0.77885118     1.93200
Cr606      Cr  0.36715826  0.50091837  0.78436420     1.39100
O607        O  0.39735577  0.53802490  0.74639154    -1.23100
O608        O  0.39196886  0.74836110  0.68494067    -0.85300
O609        O  0.34014486  0.76454526  0.67657181    -0.82400
C610        C  0.31870544  0.75229757  0.71563070     0.98100
O611        O  0.32769059  0.76662734  0.76139276    -0.82400
O612        O  0.37054677  0.78394657  0.84804686    -0.85000
C613        C  0.38384930  0.76432435  0.85748806     1.02700
O614        O  0.40549102  0.76245258  0.82459644    -0.77800
O615        O  0.44238649  0.77191628  0.72623148    -0.78000
C616        C  0.41725870  0.74564849  0.70320376     1.02600
O617        O  0.44606788  0.82212448  0.65994914    -0.85300
O618        O  0.39301893  0.83797808  0.65898043    -0.82400
C619        C  0.37655084  0.85125813  0.68266026     0.98200
O620        O  0.36268946  0.84056397  0.72864011    -0.82400
O621        O  0.40683828  0.85635307  0.81615823    -0.85000
C622        C  0.42839463  0.85514350  0.84831976     1.02600
O623        O  0.44028089  0.83461199  0.83942820    -0.77800
O624        O  0.46929100  0.84682129  0.73775358    -0.78000
C625        C  0.47054570  0.84734238  0.68705662     1.02600
Cr626      Cr  0.39343427  0.79404706  0.67590466     1.93700
Cr627      Cr  0.36927576  0.81124372  0.78469540     1.93200
Cr628      Cr  0.43639380  0.80394520  0.77842041     1.39100
O629        O  0.39932373  0.80314950  0.74639626    -1.23100
O630        O  0.18711295  0.58881582  0.69920882    -0.85300
O631        O  0.17154301  0.51979618  0.68695335    -0.82400
C632        C  0.18272789  0.50884934  0.72484810     0.98100
O633        O  0.16798316  0.50263610  0.77024999    -0.82400
O634        O  0.14995201  0.52632224  0.85891379    -0.85000
C635        C  0.17042563  0.55899524  0.86881909     1.02700
O636        O  0.17129162  0.58272943  0.83845946    -0.77800
O637        O  0.16133785  0.61254886  0.74504642    -0.78000
C638        C  0.18807698  0.61593983  0.71977669     1.02600
O639        O  0.11325032  0.56772512  0.67470892    -0.85300
O640        O  0.09763930  0.49853944  0.66891411    -0.82400
C641        C  0.08388853  0.96939320  0.69091386     0.98200
O642        O  0.09468300  0.96559763  0.73599210    -0.82400
O643        O  0.07736826  0.49094339  0.82391300    -0.85000
C644        C  0.07794137  0.51210662  0.85920527     1.02600
O645        O  0.09898566  0.54470764  0.85481803    -0.77800
O646        O  0.08685672  0.56419032  0.75233379    -0.78000
C647        C  0.08799789  0.56736996  0.70157821     1.02600
Cr648      Cr  0.14153872  0.54324566  0.68831539     1.93700
Cr649      Cr  0.12316036  0.49933362  0.79372849     1.93200
Cr650      Cr  0.12956809  0.57309093  0.79407019     1.39100
O651        O  0.13149873  0.53820494  0.75853987    -1.23100
C652        C  0.37308332  0.87928354  0.65462884     0.03200
C653        C  0.36844971  0.87677675  0.59838638    -0.13000
C654        C  0.36495694  0.90269913  0.57051920     0.00700
C655        C  0.36941660  0.93285427  0.59849432    -0.11500
C656        C  0.37275039  0.93542980  0.65443228     0.03200
C657        C  0.37403436  0.90818656  0.68281214    -0.10900
H658        H  0.36475327  0.85324924  0.57712299     0.08700
H659        H  0.36700894  0.95314025  0.57705149     0.06300
H660        H  0.37696981  0.91006960  0.72614875     0.06100
C661        C  0.22661676  0.90437263  0.32519196     0.03200
C662        C  0.19708663  0.90222534  0.35273213    -0.13000
C663        C  0.17083256  0.90537737  0.32418641     0.00700
C664        C  0.17527937  0.91246508  0.26884700    -0.11500
C665        C  0.20583039  0.91723177  0.24218221     0.03200
C666        C  0.23041037  0.91155214  0.27003338    -0.10900
H667        H  0.19399835  0.89708455  0.39554075     0.08700
H668        H  0.15632106  0.91714038  0.24767226     0.06300
H669        H  0.25402052  0.91510284  0.24932514     0.06100
C670        C  0.03841686  0.71749965  0.34075329     0.03200
C671        C  0.53227546  0.71429574  0.27840350    -0.13000
C672        C  0.52907570  0.74031978  0.24947825     0.00700
C673        C  0.53451622  0.77100973  0.27632728    -0.11500
C674        C  0.03999664  0.77472457  0.33650598     0.03200
C675        C  0.04292131  0.74869150  0.36616034    -0.10900
H676        H  0.52765334  0.69029372  0.25769230     0.08700
H677        H  0.53112781  0.79051726  0.25443344     0.06300
H678        H  0.04847929  0.75260270  0.40884568     0.06100
C679        C  0.14218468  0.83509366  0.72091385     0.03200
C680        C  0.12276761  0.79792074  0.72495547    -0.13000
C681        C  0.14112807  0.77915354  0.72374826     0.00700
C682        C  0.17606937  0.79652135  0.74199343    -0.11500
C683        C  0.19677752  0.83293749  0.73031873     0.03200
C684        C  0.17852025  0.85230416  0.73390831    -0.10900
H685        H  0.09591312  0.78379207  0.70981804     0.08700
H686        H  0.18852178  0.78049440  0.74580770     0.06300
H687        H  0.19269527  0.88073219  0.73084653     0.06100
O688        O  0.01845557  0.88281270  0.35503557    -0.85300
O689        O  0.08629986  0.93643598  0.34340517    -0.82400
C690        C  0.09635616  0.95934111  0.38086312     0.98100
O691        O  0.10216812  0.95227904  0.42723458    -0.82400
O692        O  0.07757545  0.91137825  0.51567704    -0.85000
C693        C  0.04461298  0.89775649  0.52512673     1.02700
O694        O  0.02173363  0.87504903  0.49334958    -0.77800
O695        O  0.49552015  0.83324978  0.39577180    -0.78000
C696        C  0.49206343  0.85640217  0.37090729     1.02600
O697        O  0.04148816  0.83037294  0.33406550    -0.85300
O698        O  0.10941851  0.88480630  0.32839520    -0.82400
C699        C  0.13903010  0.90230226  0.35128112     0.98200
O700        O  0.14201882  0.91788324  0.39580691    -0.82400
O701        O  0.11514757  0.87546778  0.48309223    -0.85000
C702        C  0.09448626  0.85625380  0.51932985     1.02600
O703        O  0.06178205  0.84335318  0.51335353    -0.77800
O704        O  0.04535221  0.81037809  0.41314429    -0.78000
C705        C  0.04287996  0.80693715  0.36266436     1.02600
Cr706      Cr  0.06418972  0.88331429  0.34575790     1.93700
Cr707      Cr  0.10626740  0.91181587  0.45208596     1.93200
Cr708      Cr  0.03384131  0.84348724  0.45128829     1.39100
O709        O  0.06846026  0.88008908  0.41622868    -1.23100
O710        O  0.08710203  0.60521207  0.35206282    -0.85300
O711        O  0.01870459  0.58959149  0.37079611    -0.82400
C712        C  0.49265506  0.58859362  0.37899449     0.98100
O713        O  0.49606496  0.61509593  0.40531253    -0.82400
O714        O  0.02732426  0.60731264  0.50903825    -0.85000
C715        C  0.05107091  0.60729349  0.53836154     1.02700
O716        O  0.08365311  0.62607694  0.52651958    -0.77800
O717        O  0.10354695  0.60556801  0.43516514    -0.78000
C718        C  0.09755051  0.59258534  0.38839890     1.02600
O719        O  0.10792044  0.67857503  0.33620163    -0.85300
O720        O  0.03874424  0.66282398  0.34491108    -0.82400
C721        C  0.04140774  0.68940496  0.37086802     0.98200
O722        O  0.04595393  0.69130967  0.42140256    -0.82400
O723        O  0.06779028  0.67994201  0.52260231    -0.85000
C724        C  0.10075234  0.69941113  0.52620155     1.02600
O725        O  0.12083029  0.69816000  0.49068090    -0.77800
O726        O  0.14273083  0.67856997  0.40009883    -0.78000
C727        C  0.13832651  0.69065034  0.35661553     1.02600
Cr728      Cr  0.06363825  0.63486891  0.35680490     1.93700
Cr729      Cr  0.03705894  0.64866311  0.46387435     1.93200
Cr730      Cr  0.10943870  0.65149950  0.45982079     1.39100
O731        O  0.07044603  0.64504934  0.42682459    -1.23100
O732        O  0.34321974  0.93494461  0.34152435    -0.85300
O733        O  0.35669787  0.88147109  0.34873668    -0.82400
C734        C  0.35811654  0.85501152  0.36487038     0.98100
O735        O  0.33170008  0.83123768  0.38944450    -0.82400
O736        O  0.34638339  0.87127123  0.48611093    -0.85000
C737        C  0.34663057  0.89441543  0.51825571     1.02700
O738        O  0.32708810  0.90801179  0.51061820    -0.77800
O739        O  0.34034234  0.95024735  0.42490241    -0.78000
C740        C  0.35494574  0.95750724  0.37934247     1.02600
O741        O  0.26845917  0.88492240  0.32678559    -0.85300
O742        O  0.28101564  0.82940508  0.32755687    -0.82400
C743        C  0.25655506  0.80505209  0.35580011     0.98200
O744        O  0.25797085  0.80711025  0.40656790    -0.82400
O745        O  0.27542714  0.83825598  0.50871114    -0.85000
C746        C  0.25602950  0.85109056  0.52020292     1.02600
O747        O  0.25333719  0.87155059  0.48760979    -0.77800
O748        O  0.26505080  0.91319575  0.39884627    -0.78000
C749        C  0.25457216  0.90027664  0.35232198     1.02600
Cr750      Cr  0.31155954  0.88212829  0.34193115     1.93700
Cr751      Cr  0.30274732  0.84004370  0.44417937     1.93200
Cr752      Cr  0.29694507  0.90821540  0.45145629     1.39100
O753        O  0.30362013  0.87725234  0.41251366    -1.23100
C754        C  0.22715989  0.77350723  0.32833832     0.03200
C755        C  0.23050483  0.76811471  0.27339989    -0.13000
C756        C  0.20488224  0.73779267  0.24606212     0.00700
C757        C  0.17375408  0.71392804  0.27297393    -0.11500
C758        C  0.16962914  0.71848182  0.32805306     0.03200
C759        C  0.19664459  0.74804157  0.35590344    -0.10900
H760        H  0.25453775  0.78646579  0.25239924     0.08700
H761        H  0.15422214  0.69006923  0.25250360     0.06300
H762        H  0.19374084  0.75121544  0.39862862     0.06100
C763        C  0.40041648  0.61023883  0.98848010     0.03200
C764        C  0.40172289  0.60593628  0.93261236    -0.13000
C765        C  0.37510348  0.57569126  0.90677336     0.00700
C766        C  0.34536932  0.55152898  0.93601174    -0.11500
C767        C  0.34338254  0.55493986  0.99171714     0.03200
C768        C  0.37151724  0.58408840  0.01835599    -0.10900
H769        H  0.42497902  0.62457888  0.91020232     0.08700
H770        H  0.32480183  0.52819256  0.91574007     0.06300
H771        H  0.37049820  0.58691881  0.06160223     0.06100
C772        C  0.34267390  0.73594672  0.99503850     0.03200
C773        C  0.37035020  0.73528485  0.02313491    -0.13000
C774        C  0.40091114  0.73979732  0.99572241     0.00700
C775        C  0.40371276  0.74594309  0.93965635    -0.11500
C776        C  0.37682527  0.74783794  0.91146995     0.03200
C777        C  0.34604274  0.74169445  0.93936037    -0.10900
H778        H  0.36789144  0.73092120  0.06615067     0.08700
H779        H  0.42775235  0.75136317  0.91844059     0.06300
H780        H  0.32546144  0.74370695  0.91811503     0.06100
C781        C  0.29547799  0.64175433  0.38995572     0.03200
C782        C  0.33261955  0.66297224  0.39221543    -0.13000
C783        C  0.35299216  0.64636021  0.38734052     0.00700
C784        C  0.33828074  0.61153486  0.40547421    -0.11500
C785        C  0.30169653  0.58933494  0.39743509     0.03200
C786        C  0.28068798  0.60573670  0.40368282    -0.10900
H787        H  0.34504014  0.68988848  0.37759209     0.08700
H788        H  0.35530016  0.59995766  0.40502346     0.06300
H789        H  0.25222464  0.58995426  0.40255627     0.06100
O790        O  0.03067940  0.75969862  0.02837008    -0.85300
O791        O  0.01364036  0.69103954  0.01383071    -0.82400
C792        C  0.02739158  0.68289713  0.05143854     0.98100
O793        O  0.01406323  0.67677803  0.09785940    -0.82400
O794        O  0.99348512  0.69736651  0.18813787    -0.85000
C795        C  0.01179613  0.72982676  0.20074513     1.02700
O796        O  0.01317446  0.75378573  0.17025401    -0.77800
O797        O  0.00645463  0.78458011  0.07543977    -0.78000
C798        C  0.03271524  0.78704548  0.04977553     1.02600
O799        O  0.45576438  0.73990834  0.99802221    -0.85300
O800        O  0.44198983  0.67161449  0.99304557    -0.82400
C801        C  0.42978792  0.64171345  0.01486720     0.98200
O802        O  0.44254546  0.63818192  0.05821557    -0.82400
O803        O  0.42267605  0.66199917  0.14667136    -0.85000
C804        C  0.42182996  0.68285696  0.18139597     1.02600
O805        O  0.44119808  0.71567767  0.17669079    -0.77800
O806        O  0.42950173  0.73576317  0.07567278    -0.78000
C807        C  0.43004993  0.73831809  0.02488591     1.02600
Cr808      Cr  0.98488394  0.71526109  0.01673994     1.93700
Cr809      Cr  0.46945251  0.67295258  0.11670759     1.93200
Cr810      Cr  0.47224672  0.74545862  0.11821217     1.39100
O811        O  0.47578347  0.71153939  0.08225526    -1.23100
O812        O  0.26132970  0.93704303  0.01242748    -0.85300
O813        O  0.19270327  0.92168553  0.02149351    -0.82400
C814        C  0.16508226  0.92056434  0.03959290     0.98100
O815        O  0.16759182  0.94754734  0.06320147    -0.82400
O816        O  0.19366971  0.93547831  0.15859883    -0.85000
C817        C  0.21651847  0.93608874  0.19060543     1.02700
O818        O  0.24948865  0.95639842  0.18273483    -0.77800
O819        O  0.27664968  0.93993517  0.09672571    -0.78000
C820        C  0.27164267  0.92562582  0.05099110     1.02600
O821        O  0.28238733  0.01120692  0.99609406    -0.85300
O822        O  0.21381452  0.99645214  0.99778404    -0.82400
C823        C  0.21382271  0.02144996  0.02546897     0.98200
O824        O  0.21616511  0.02173743  0.07616812    -0.82400
O825        O  0.23035771  0.50549450  0.18022047    -0.85000
C826        C  0.26266756  0.52491554  0.18989171     1.02600
O827        O  0.28470970  0.52886358  0.15391020    -0.77800
O828        O  0.31498252  0.01354627  0.06486814    -0.78000
C829        C  0.31185699  0.02474800  0.01978888     1.02600
Cr830      Cr  0.23776327  0.96728526  0.01239790     1.93700
Cr831      Cr  0.20530583  0.97815965  0.11584676     1.93200
Cr832      Cr  0.27874474  0.98418636  0.12006119     1.39100
O833        O  0.24097824  0.97636403  0.08263473    -1.23100
O834        O  0.18969634  0.71449588  0.02903698    -0.85300
O835        O  0.25730086  0.76857392  0.01979037    -0.82400
C836        C  0.26999399  0.79097889  0.05779595     0.98100
O837        O  0.27730657  0.78243172  0.10197821    -0.82400
O838        O  0.24814024  0.73967678  0.18746073    -0.85000
C839        C  0.21516528  0.72744000  0.19518583     1.02700
O840        O  0.19216102  0.70435885  0.16368240    -0.77800
O841        O  0.16614695  0.66378217  0.06785867    -0.78000
C842        C  0.16241708  0.68742878  0.04582377     1.02600
O843        O  0.21370070  0.66292475  0.00240112    -0.85300
O844        O  0.28163513  0.71853339  0.99854572    -0.82400
C845        C  0.31080908  0.73239293  0.02330868     0.98200
O846        O  0.31351369  0.74396845  0.07097353    -0.82400
O847        O  0.28436973  0.70185628  0.15927657    -0.85000
C848        C  0.26123763  0.68028358  0.19103042     1.02600
O849        O  0.22920979  0.66968811  0.18309187    -0.77800
O850        O  0.21505010  0.63978563  0.08028030    -0.78000
C851        C  0.21325077  0.63791793  0.02948231     1.02600
Cr852      Cr  0.23584680  0.71555256  0.01814037     1.93700
Cr853      Cr  0.27772127  0.73949880  0.12605318     1.93200
Cr854      Cr  0.20385022  0.67264759  0.12039195     1.39100
O855        O  0.23981177  0.70967740  0.08800919    -1.23100
C856        C  0.20862320  0.60560663  0.00098812     0.03200
C857        C  0.19685349  0.59955199  0.94748374    -0.13000
C858        C  0.19011405  0.56852053  0.92009201     0.00700
C859        C  0.19651083  0.54367857  0.94604532    -0.11500
C860        C  0.20835842  0.54891374  0.99956477     0.03200
C861        C  0.21415898  0.58002332  0.02698894    -0.10900
H862        H  0.19048396  0.61789798  0.92830264     0.08700
H863        H  0.19072898  0.51937877  0.92511554     0.06300
H864        H  0.22293598  0.58431086  0.06839576     0.06100
C865        C  0.29267110  0.88644679  0.08835897    -0.12200
C866        C  0.27690419  0.89410446  0.04527539     0.04800
C867        C  0.26308867  0.86928024  0.00239485    -0.07500
C868        C  0.26196053  0.83631601  0.00623344    -0.08300
C869        C  0.27529049  0.82766366  0.05164242    -0.02800
C870        C  0.29209047  0.85407890  0.09199711     0.04000
N871        N  0.30777998  0.84834633  0.13830695     0.66500
H872        H  0.30455999  0.90529119  0.12118528     0.15400
H873        H  0.24989403  0.81714100  0.97388233     0.15100
N874        N  0.24947794  0.87669877  0.95525255     0.74200
O875        O  0.34089370  0.86096614  0.13954092    -0.39200
O876        O  0.29039817  0.83901203  0.18173271    -0.39200
O877        O  0.27068309  0.89784063  0.92073806    -0.39900
O878        O  0.21703709  0.85808690  0.94399244    -0.40000
C879        C  0.06349845  0.65388051  0.06465228    -0.12200
C880        C  0.06025595  0.68142254  0.04193373     0.04800
C881        C  0.09008633  0.70954873  0.01689110    -0.07500
C882        C  0.12269106  0.71028505  0.01664376    -0.08300
C883        C  0.12646399  0.68345335  0.04126224    -0.02800
C884        C  0.09601705  0.65452289  0.06455404     0.04000
N885        N  0.09779396  0.62636581  0.09078066     0.66500
H886        H  0.04086975  0.63227349  0.08443561     0.15400
H887        H  0.14551114  0.73284537  0.99897159     0.15100
N888        N  0.08884914  0.73960685  0.99711641     0.74200
O889        O  0.10650757  0.62969673  0.13968918    -0.39200
O890        O  0.08435967  0.59622101  0.06849347    -0.39200
O891        O  0.10414931  0.76843734  0.02317405    -0.39900
O892        O  0.07929351  0.73947656  0.94932304    -0.40000
C893        C  0.10633650  0.88112586  0.07959438    -0.12200
C894        C  0.13003193  0.88758615  0.03678525     0.04800
C895        C  0.12070789  0.86123643  0.99617231    -0.07500
C896        C  0.08863808  0.82883106  0.00089161    -0.08300
C897        C  0.06557805  0.82210746  0.04479070    -0.02800
C898        C  0.07470588  0.84893279  0.08417509     0.04000
N899        N  0.05355923  0.84305322  0.13141196     0.66500
H900        H  0.11318462  0.90063778  0.11155525     0.15400
H901        H  0.08140602  0.80884843  0.96963041     0.15100
N902        N  0.14264288  0.86708710  0.94943707     0.74200
O903        O  0.06053567  0.83148885  0.17313450    -0.39200
O904        O  0.03359973  0.85637082  0.13499746    -0.39200
O905        O  0.14327364  0.84128439  0.92658569    -0.39900
O906        O  0.15701656  0.89671472  0.92620622    -0.40000
C907        C  0.25664001  0.62520915  0.30884844    -0.12200
C908        C  0.27730463  0.65131964  0.34755471     0.04800
C909        C  0.28922241  0.68721795  0.33490125    -0.07500
C910        C  0.28702849  0.69634696  0.28158492    -0.08300
C911        C  0.27021956  0.67012393  0.24185652    -0.02800
C912        C  0.25306337  0.63428230  0.25666852     0.04000
N913        N  0.23254629  0.60666969  0.21864818     0.66500
H914        H  0.24565542  0.59733900  0.31666508     0.15400
H915        H  0.29654845  0.72386741  0.27172785     0.15100
N916        N  0.30327568  0.71432662  0.37584544     0.74200
O917        O  0.24689862  0.60327408  0.17633301    -0.39200
O918        O  0.20090808  0.58382542  0.22952590    -0.39200
O919        O  0.32659391  0.74561199  0.36430462    -0.39900
O920        O  0.29051439  0.70765645  0.42286862    -0.40000
C921        C  0.24671648  0.53064578  0.28435291    -0.12200
C922        C  0.27335553  0.53726028  0.24610135     0.04800
C923        C  0.30818756  0.55011327  0.26465914    -0.07500
C924        C  0.31650615  0.56197238  0.31789464    -0.08300
C925        C  0.29063676  0.56084922  0.35430258    -0.02800
C926        C  0.25477353  0.54011004  0.33866226     0.04000
N927        N  0.22643338  0.52826802  0.37725198     0.66500
H928        H  0.21915776  0.51697626  0.27237119     0.15400
H929        H  0.34408445  0.57404565  0.32872389     0.15100
N930        N  0.33525616  0.55048137  0.23081863     0.74200
O931        O  0.19639165  0.52319439  0.36345197    -0.39200
O932        O  0.23055796  0.52022072  0.42420109    -0.39200
O933        O  0.36431912  0.57885893  0.22479379    -0.39900
O934        O  0.33295176  0.52147146  0.21626256    -0.40000
C935        C  0.42428807  0.67887215  0.27957117    -0.12200
C936        C  0.40351406  0.67008761  0.23271769     0.04800
C937        C  0.36658385  0.65231915  0.23673565    -0.07500
C938        C  0.35093047  0.64356675  0.28757065    -0.08300
C939        C  0.37160105  0.65319608  0.33489309    -0.02800
C940        C  0.40855707  0.67048560  0.33059142     0.04000
N941        N  0.43027944  0.68054378  0.37744829     0.66500
H942        H  0.45292271  0.69291380  0.27652517     0.15400
H943        H  0.32234957  0.63015786  0.29023119     0.15100
N944        N  0.34493131  0.64536445  0.19016728     0.74200
O945        O  0.43784582  0.65882674  0.39830223    -0.39200
O946        O  0.44592274  0.71243720  0.39321682    -0.39200
O947        O  0.32219591  0.61393105  0.17782091    -0.39900
O948        O  0.34555970  0.67078622  0.16521029    -0.40000
C949        C  0.42886174  0.55444159  0.40570276    -0.12200
C950        C  0.45650537  0.55677738  0.37287671     0.04800
C951        C  0.44920809  0.52782386  0.33826613    -0.07500
C952        C  0.41633535  0.99391421  0.34218309    -0.08300
C953        C  0.38789149  0.99237593  0.37185058    -0.02800
C954        C  0.39534841  0.52387896  0.40651624     0.04000
N955        N  0.36881044  0.52311732  0.44183876     0.65600
H956        H  0.43343402  0.57620914  0.43238907     0.15400
H957        H  0.41270785  0.97066658  0.32024508     0.15100
N958        N  0.47587595  0.52874425  0.30306541     0.74200
O959        O  0.37303889  0.52419764  0.49211970    -0.39200
O960        O  0.33948606  0.02218034  0.40353835    -0.39200
O961        O  0.91346733  0.58946916  0.46919079    -0.39900
O962        O  0.48726375  0.03701997  0.26828371    -0.40000
C963        C  0.45270918  0.87674237  0.33087559    -0.12200
C964        C  0.45631258  0.85255489  0.36348711     0.04800
C965        C  0.42600565  0.82660415  0.39101406    -0.07500
C966        C  0.39407488  0.82703307  0.38859150    -0.08300
C967        C  0.39086874  0.85234416  0.35817240    -0.02800
C968        C  0.42039923  0.87662904  0.32715357     0.04000
N969        N  0.41824552  0.90123738  0.29160559     0.66500
H970        H  0.47523030  0.89598637  0.30791267     0.15400
H971        H  0.37198081  0.80809387  0.41264644     0.15100
N972        N  0.42736559  0.80042475  0.42356069     0.74200
O973        O  0.44354757  0.93275083  0.28908342    -0.39200
O974        O  0.39437500  0.89004559  0.25621641    -0.39200
O975        O  0.43005286  0.80453263  0.47396769    -0.39900
O976        O  0.42037194  0.77096782  0.40297054    -0.40000
C977        C  0.12627213  0.52398610  0.40206167    -0.12200
C978        C  0.10107723  0.99520749  0.37221471     0.04800
C979        C  0.07781766  0.00097698  0.34011027    -0.07500
C980        C  0.07600543  0.53289195  0.34599993    -0.08300
C981        C  0.10154744  0.56114245  0.37716649    -0.02800
C982        C  0.12774427  0.55685902  0.40346016     0.04000
N983        N  0.15588732  0.58565274  0.43217412     0.66500
H984        H  0.14550348  0.52073507  0.42501971     0.15400
H985        H  0.05541471  0.53559406  0.32610527     0.15100
N986        N  0.05115088  0.97290313  0.30839547     0.74200
O987        O  0.15844841  0.58376711  0.48239502    -0.39200
O988        O  0.18075328  0.61063443  0.40648543    -0.39200
O989        O  0.01949223  0.95653526  0.32490643    -0.39900
O990        O  0.05853946  0.96679644  0.26167253    -0.40000
C991        C  0.14273434  0.77568629  0.62422357    -0.12200
C992        C  0.13466201  0.75776497  0.67386039     0.04800
C993        C  0.11822979  0.72068446  0.67399700    -0.07500
C994        C  0.10824481  0.70201401  0.62496055    -0.08300
C995        C  0.11513008  0.72011082  0.57574409    -0.02800
C996        C  0.13296321  0.75717897  0.57546684     0.04000
N997        N  0.13824461  0.77611553  0.52651932     0.66500
H998        H  0.15560779  0.80432674  0.62345349     0.15400
H999        H  0.09454118  0.67327567  0.62525190     0.15100
N1000       N  0.11091204  0.70183828  0.72340502     0.74200
O1001       O  0.11559207  0.78432114  0.51170844    -0.39200
O1002       O  0.16428525  0.78268068  0.49640395    -0.39200
O1003       O  0.08093777  0.68979612  0.74557829    -0.39900
O1004       O  0.13508444  0.69900944  0.74652373    -0.40000
C1005       C  0.24543102  0.87651739  0.60334200    -0.12200
C1006       C  0.24267053  0.84683075  0.57604748     0.04800
C1007       C  0.23705722  0.81739418  0.60673155    -0.07500
C1008       C  0.22933382  0.81620890  0.66149933    -0.08300
C1009       C  0.22524683  0.84322892  0.68709990    -0.02800
C1010       C  0.23935581  0.87584198  0.65918888     0.04000
N1011       N  0.24906673  0.90855067  0.68697722     0.66500
H1012       H  0.25483420  0.90113382  0.58178956     0.15400
H1013       H  0.22386233  0.79229624  0.68199023     0.15100
N1014       N  0.23871024  0.78808706  0.58291467     0.74200
O1015       O  0.26047196  0.91326511  0.73460478    -0.39200
O1016       O  0.24904469  0.93385545  0.66263849    -0.39200
O1017       O  0.26253765  0.78141831  0.59725325    -0.39900
O1018       O  0.21380260  0.76623014  0.55335211    -0.40000
C1019       C  0.15495242  0.86901795  0.63593004    -0.12200
C1020       C  0.13057727  0.85075656  0.67763307     0.04800
C1021       C  0.09428133  0.83807773  0.66774313    -0.07500
C1022       C  0.08317246  0.83870919  0.61527640    -0.08300
C1023       C  0.10762857  0.85328138  0.57245324    -0.02800
C1024       C  0.14401422  0.86958920  0.58374438     0.04000
N1025       N  0.17035472  0.88537861  0.54245110     0.66500
H1026       H  0.18288095  0.87991512  0.64161275     0.15400
H1027       H  0.05514032  0.82826941  0.60835246     0.15100
N1028       N  0.06848467  0.82375580  0.71024462     0.74200
O1029       O  0.19312498  0.91792125  0.54524774    -0.39200
O1030       O  0.17418916  0.86590593  0.50807331    -0.39200
O1031       O  0.07491341  0.83918237  0.75547795    -0.39900
O1032       O  0.03832387  0.79716257  0.70163563    -0.40000
C1033       C  0.26075080  0.70918882  0.75588360    -0.12200
C1034       C  0.28292484  0.71962532  0.71027174     0.04800
C1035       C  0.27202852  0.69625254  0.66505860    -0.07500
C1036       C  0.24133405  0.66233967  0.66879552    -0.08300
C1037       C  0.22014388  0.65185890  0.71553403    -0.02800
C1038       C  0.22996040  0.67618056  0.75885152     0.04000
N1039       N  0.21069273  0.66671227  0.80845615     0.66500
H1040       H  0.26790521  0.72631008  0.79106858     0.15400
H1041       H  0.23356049  0.64436971  0.63458843     0.15100
N1042       N  0.29121701  0.70641756  0.61514436     0.74200
O1043       O  0.22386408  0.66001686  0.84856233    -0.39200
O1044       O  0.18586862  0.67346731  0.81561149    -0.39200
O1045       O  0.29673259  0.68446844  0.58914119    -0.39900
O1046       O  0.29636280  0.73433316  0.59215676    -0.40000
C1047       C  0.38613323  0.64732181  0.69823609    -0.12200
C1048       C  0.41840558  0.64737212  0.69585581     0.04800
C1049       C  0.45033799  0.68001199  0.69331493    -0.07500
C1050       C  0.44948869  0.71182992  0.69508474    -0.08300
C1051       C  0.41716115  0.71170474  0.69884400    -0.02800
C1052       C  0.38510207  0.67894854  0.70042461     0.04000
N1053       N  0.35153651  0.67718176  0.70871722     0.66500
H1054       H  0.36152351  0.62251919  0.70233774     0.15400
H1055       H  0.47422471  0.73675439  0.69336458     0.15100
N1056       N  0.48372107  0.68127134  0.68835948     0.74200
O1057       O  0.32519723  0.65622611  0.68059544    -0.39200
O1058       O  0.34673594  0.69184878  0.74960699    -0.39200
O1059       O  0.49330871  0.67497742  0.64342134    -0.39900
O1060       O  0.50546956  0.69319524  0.72672387    -0.40000
C1061       C  0.25718274  0.48993311  0.75542029    -0.12200
C1062       C  0.28156940  0.50728987  0.71357685     0.04800
C1063       C  0.27159173  0.52256428  0.67215763    -0.07500
C1064       C  0.23846406  0.52121168  0.67456772    -0.08300
C1065       C  0.21468725  0.50467408  0.71761767    -0.02800
C1066       C  0.22407922  0.48773741  0.75719287     0.04000
N1067       N  0.20042886  0.46822562  0.80006767     0.66500
H1068       H  0.26369899  0.47760127  0.78760730     0.15400
H1069       H  0.23210543  0.53462428  0.64388494     0.15100
N1070       N  0.29554756  0.54159956  0.62946296     0.74200
O1071       O  0.17368905  0.93697301  0.78669229    -0.39200
O1072       O  0.20795911  0.47952395  0.84785739    -0.39200
O1073       O  0.28990276  0.52822441  0.58278594    -0.39900
O1074       O  0.31804052  0.57395350  0.63600857    -0.40000
C1075       C  0.46985155  0.89029483  0.98334875    -0.12200
C1076       C  0.44108918  0.88834642  0.01336013     0.04800
C1077       C  0.40721580  0.86962170  0.98912860    -0.07500
C1078       C  0.40458247  0.86376308  0.93329730    -0.08300
C1079       C  0.43445214  0.87101813  0.90226379    -0.02800
C1080       C  0.46679511  0.88187800  0.92866813     0.04000
N1081       N  0.49675069  0.88395467  0.90074811     0.66500
H1082       H  0.99597573  0.90122206  0.00718541     0.15400
H1083       H  0.37860761  0.85027487  0.91484835     0.15100
N1084       N  0.37550277  0.85409909  0.02103197     0.74200
O1085       O  0.01454654  0.90531999  0.87423127    -0.39200
O1086       O  0.50925234  0.86458636  0.91488745    -0.39200
O1087       O  0.34696822  0.85019339  0.00199439    -0.39900
O1088       O  0.37488358  0.83985343  0.06524980    -0.40000
C1089       C  0.07658056  0.00952640  0.95855061    -0.12200
C1090       C  0.05756165  0.49926654  0.90916079     0.04800
C1091       C  0.02060961  0.48263896  0.90917686    -0.07500
C1092       C  0.00246041  0.47386348  0.95802319    -0.08300
C1093       C  0.02132080  0.98454940  0.00815883    -0.02800
C1094       C  0.05840129  0.00122218  0.00790971     0.04000
N1095       N  0.07775155  0.01046971  0.05716699     0.66500
H1096       H  0.10530207  0.02305435  0.95846361     0.15400
H1097       H  0.97388753  0.46078876  0.95715120     0.15100
N1098       N  0.00139807  0.47641470  0.86015388     0.74200
O1099       O  0.09075342  0.99205947  0.07374750    -0.39200
O1100       O  0.08035269  0.03594687  0.08550961    -0.39200
O1101       O  0.99304508  0.44884384  0.83249966    -0.39900
O1102       O  0.99142054  0.49777352  0.84564450    -0.40000
C1103       C  0.40338852  0.95012906  0.96804470    -0.12200
C1104       C  0.42087712  0.97488735  0.00994337     0.04800
C1105       C  0.43965858  0.51417285  0.99810186    -0.07500
C1106       C  0.43998792  0.52535625  0.94528712    -0.08300
C1107       C  0.42584117  0.50090726  0.90223153    -0.02800
C1108       C  0.40402435  0.96094548  0.91518542     0.04000
N1109       N  0.38835004  0.93436460  0.87392209     0.66500
H1110       H  0.39258802  0.92214576  0.97420932     0.15400
H1111       H  0.45066390  0.55340245  0.93821786     0.15100
N1112       N  0.94144704  0.53319357  0.04828176     0.74200
O1113       O  0.40771694  0.93138676  0.83848237    -0.39200
O1114       O  0.35627245  0.91049491  0.87787991    -0.39200
O1115       O  0.96464064  0.56535601  0.04225787    -0.39900
O1116       O  0.92613929  0.52304934  0.09326155    -0.40000
C1117       C  0.50262855  0.06737439  0.66252830     0.03200
C1118       C  0.52878176  0.06386675  0.69090026    -0.13000
C1119       C  0.56078797  0.07070579  0.66567128     0.00700
C1120       C  0.56631337  0.08181521  0.61151505    -0.11500
C1121       C  0.54059928  0.08587744  0.58288076     0.03200
C1122       C  0.50863570  0.07762267  0.60839331    -0.10900
H1123       H  0.52424237  0.05587417  0.73263839     0.08700
H1124       H  0.59123848  0.08849160  0.59203512     0.06300
H1125       H  0.48932245  0.08161966  0.58701194     0.06100
C1126       C  0.50166354  0.37975526  0.65727749     0.03200
C1127       C  0.50491659  0.37763442  0.60115464    -0.13000
C1128       C  0.53344181  0.40483348  0.57321801     0.00700
C1129       C  0.55758371  0.43569325  0.60110215    -0.11500
C1130       C  0.55536480  0.43843609  0.65701294     0.03200
C1131       C  0.52741018  0.41018684  0.68511467    -0.10900
H1132       H  0.48679233  0.35356850  0.57972659     0.08700
H1133       H  0.58002989  0.45648244  0.57975680     0.06300
H1134       H  0.52569069  0.41201344  0.72843471     0.06100
C1135       C  0.93970184  0.46339034  0.05478843     0.03200
C1136       C  0.92639038  0.42719428  0.06569149    -0.13000
C1137       C  0.94957443  0.41317074  0.06122675     0.00700
C1138       C  0.98526383  0.43693314  0.07393535    -0.11500
C1139       C  0.49976786  0.46979842  0.05423982     0.03200
C1140       C  0.97865640  0.99167662  0.06093731    -0.10900
H1141       H  0.89825646  0.41012484  0.06098310     0.08700
H1142       H  0.50066299  0.42319771  0.07352428     0.06300
H1143       H  0.48767888  0.01505937  0.04285690     0.06100
O1144       O  0.83821699  0.01641729  0.67813887    -0.85300
O1145       O  0.89062692  0.08451831  0.68605465    -0.82400
C1146       C  0.91682315  0.11269241  0.70235340     0.98100
O1147       O  0.94112828  0.11122029  0.72734701    -0.82400
O1148       O  0.90205421  0.08675096  0.82260909    -0.85000
C1149       C  0.88031715  0.06448863  0.85570082     1.02700
O1150       O  0.86774443  0.03135175  0.84862508    -0.77800
O1151       O  0.82535471  0.00404771  0.76326541    -0.78000
C1152       C  0.81662347  0.00831028  0.71717054     1.02600
O1153       O  0.89207118  0.99545056  0.66376551    -0.85300
O1154       O  0.94489779  0.06395450  0.66495309    -0.82400
C1155       C  0.96956493  0.06472459  0.69345719     0.98200
O1156       O  0.96671252  0.06277707  0.74400244    -0.82400
O1157       O  0.93514441  0.04801788  0.84592872    -0.85000
C1158       C  0.92251421  0.01533699  0.85309496     1.02600
O1159       O  0.90434423  0.99421293  0.81645594    -0.77800
O1160       O  0.85684113  0.46309960  0.73144226    -0.78000
C1161       C  0.87246898  0.46546215  0.68718032     1.02600
Cr1162     Cr  0.89186945  0.03995354  0.67851395     1.93700
Cr1163     Cr  0.93354967  0.07425469  0.78164827     1.93200
Cr1164     Cr  0.86652780  0.00099813  0.78671285     1.39100
O1165       O  0.89683395  0.03803795  0.74881616    -1.23100
O1166       O  0.89290700  0.24888658  0.68302986    -0.85300
O1167       O  0.84054491  0.26422229  0.67767891    -0.82400
C1168       C  0.81985802  0.25079584  0.71742125     0.98100
O1169       O  0.82902543  0.26491374  0.76327297    -0.82400
O1170       O  0.87227347  0.28207348  0.84866245    -0.85000
C1171       C  0.88564690  0.26242363  0.85696333     1.02700
O1172       O  0.90714762  0.26090104  0.82343728    -0.77800
O1173       O  0.94334046  0.27177456  0.72412435    -0.78000
C1174       C  0.91809042  0.24580780  0.70067114     1.02600
O1175       O  0.94659030  0.32333424  0.66029606    -0.85300
O1176       O  0.89293650  0.33832290  0.66209695    -0.82400
C1177       C  0.87587870  0.35058388  0.68673101     0.98200
O1178       O  0.86236624  0.33915536  0.73263401    -0.82400
O1179       O  0.90750308  0.35457121  0.81935503    -0.85000
C1180       C  0.92922189  0.35299667  0.85083739     1.02600
O1181       O  0.94142692  0.33290336  0.84038918    -0.77800
O1182       O  0.97013659  0.34663415  0.73862853    -0.78000
C1183       C  0.97123105  0.34803627  0.68799854     1.02600
Cr1184     Cr  0.89395922  0.29445488  0.67655862     1.93700
Cr1185     Cr  0.87011224  0.30969618  0.78696422     1.93200
Cr1186     Cr  0.93753369  0.30308178  0.77810748     1.39100
O1187       O  0.90021060  0.30252830  0.74726713    -1.23100
O1188       O  0.68740297  0.08645029  0.69566359    -0.85300
O1189       O  0.67041986  0.01674927  0.68392247    -0.82400
C1190       C  0.68212318  0.00658213  0.72221021     0.98100
O1191       O  0.66820665  0.00177602  0.76812168    -0.82400
O1192       O  0.64879148  0.02450712  0.85691446    -0.85000
C1193       C  0.66872325  0.05716267  0.86751793     1.02700
O1194       O  0.66968070  0.08079942  0.83685515    -0.77800
O1195       O  0.66252360  0.11107983  0.74199149    -0.78000
C1196       C  0.68914338  0.11372432  0.71709593     1.02600
O1197       O  0.61400535  0.06688183  0.66937990    -0.85300
O1198       O  0.59690829  0.99718416  0.66608033    -0.82400
C1199       C  0.58382139  0.46981476  0.68553448     0.98200
O1200       O  0.59406123  0.46582489  0.73096113    -0.82400
O1201       O  0.57675786  0.98891283  0.81992491    -0.85000
C1202       C  0.57642729  0.01026091  0.85406295     1.02600
O1203       O  0.59696550  0.04295807  0.84918559    -0.77800
O1204       O  0.58709784  0.06348974  0.74621052    -0.78000
C1205       C  0.58852877  0.06664963  0.69542285     1.02600
Cr1206     Cr  0.64135280  0.04139262  0.68472371     1.93700
Cr1207     Cr  0.62294155  0.99788337  0.79066254     1.93200
Cr1208     Cr  0.62902816  0.07164215  0.78993334     1.39100
O1209       O  0.63120650  0.03669420  0.75507199    -1.23100
C1210       C  0.87105054  0.37801609  0.65961630     0.03200
C1211       C  0.86543057  0.37514603  0.60359174    -0.13000
C1212       C  0.86088672  0.40054529  0.57619360     0.00700
C1213       C  0.86487454  0.43043686  0.60450207    -0.11500
C1214       C  0.86957308  0.43353972  0.66026162     0.03200
C1215       C  0.87197630  0.40678440  0.68821539    -0.10900
H1216       H  0.86211288  0.35182411  0.58211742     0.08700
H1217       H  0.86174517  0.45042612  0.58346796     0.06300
H1218       H  0.87599430  0.40907622  0.73134509     0.06100
C1219       C  0.72742048  0.40503451  0.32420473     0.03200
C1220       C  0.69747079  0.40235731  0.35105356    -0.13000
C1221       C  0.67094969  0.40460870  0.32185893     0.00700
C1222       C  0.67523228  0.41107593  0.26642360    -0.11500
C1223       C  0.70603139  0.41642840  0.24012519     0.03200
C1224       C  0.73122310  0.41189933  0.26876363    -0.10900
H1225       H  0.69426990  0.39750400  0.39394074     0.08700
H1226       H  0.65593014  0.41501911  0.24483680     0.06300
H1227       H  0.75511434  0.41595374  0.24841422     0.06100
C1228       C  0.53888807  0.21697257  0.33384574     0.03200
C1229       C  0.03175627  0.21377853  0.28256481    -0.13000
C1230       C  0.02820039  0.23927922  0.25288509     0.00700
C1231       C  0.03345027  0.27019584  0.27902773    -0.11500
C1232       C  0.54039617  0.27437870  0.33061773     0.03200
C1233       C  0.54235841  0.24762155  0.36005991    -0.10900
H1234       H  0.02721766  0.18961377  0.26248815     0.08700
H1235       H  0.02974500  0.28934793  0.25668485     0.06300
H1236       H  0.54645200  0.25059047  0.40313888     0.06100
C1237       C  0.63790707  0.33504842  0.71809499     0.03200
C1238       C  0.61700429  0.29792471  0.71986400    -0.13000
C1239       C  0.63376183  0.27767062  0.71923547     0.00700
C1240       C  0.66859253  0.29335422  0.73780109    -0.11500
C1241       C  0.69081106  0.32994517  0.72854237     0.03200
C1242       C  0.67390883  0.35059374  0.73234508    -0.10900
H1243       H  0.59040536  0.28529732  0.70361763     0.08700
H1244       H  0.67970635  0.27609733  0.74074317     0.06300
H1245       H  0.68908275  0.37903239  0.73023547     0.06100
O1246       O  0.51910964  0.38309051  0.35039650    -0.85300
O1247       O  0.58722877  0.43648184  0.33950520    -0.82400
C1248       C  0.59728335  0.45928644  0.37716332     0.98100
O1249       O  0.60231773  0.45167802  0.42363078    -0.82400
O1250       O  0.57674197  0.41051344  0.51128040    -0.85000
C1251       C  0.54378192  0.39722572  0.52018689     1.02700
O1252       O  0.52094427  0.37440708  0.48833097    -0.77800
O1253       O  0.99566465  0.33394066  0.39974032    -0.78000
C1254       C  0.99188236  0.35701483  0.37531827     1.02600
O1255       O  0.54165205  0.33009756  0.32896217    -0.85300
O1256       O  0.60965241  0.38426016  0.32490228    -0.82400
C1257       C  0.63906343  0.40149584  0.34838567     0.98200
O1258       O  0.64181905  0.41692885  0.39293032    -0.82400
O1259       O  0.61387086  0.37408625  0.47925678    -0.85000
C1260       C  0.59294127  0.35517652  0.51542464     1.02600
O1261       O  0.56029634  0.34216209  0.50876565    -0.77800
O1262       O  0.54463595  0.30945686  0.40794172    -0.78000
C1263       C  0.54273496  0.30637097  0.35733682     1.02600
Cr1264     Cr  0.56458161  0.38314190  0.34141328     1.93700
Cr1265     Cr  0.60575784  0.41086593  0.44839450     1.93200
Cr1266     Cr  0.53308810  0.34271811  0.44611277     1.39100
O1267       O  0.56818285  0.37945029  0.41185566    -1.23100
O1268       O  0.58850934  0.10475594  0.34783522    -0.85300
O1269       O  0.51967621  0.08834220  0.36081450    -0.82400
C1270       C  0.99258332  0.09014214  0.38739069     0.98100
O1271       O  0.99677753  0.11708879  0.41326169    -0.82400
O1272       O  0.52556590  0.10351462  0.50011130    -0.85000
C1273       C  0.54960475  0.10485037  0.53070098     1.02700
O1274       O  0.58213696  0.12546788  0.52048882    -0.77800
O1275       O  0.60661283  0.10848377  0.43083641    -0.78000
C1276       C  0.60045930  0.09409596  0.38497913     1.02600
O1277       O  0.60904213  0.17797626  0.32993421    -0.85300
O1278       O  0.54001438  0.16243831  0.33645462    -0.82400
C1279       C  0.54084606  0.18797414  0.36341076     0.98200
O1280       O  0.54279295  0.18821604  0.41435928    -0.82400
O1281       O  0.56190719  0.17567357  0.51644138    -0.85000
C1282       C  0.59425583  0.19720769  0.52169994     1.02600
O1283       O  0.61601138  0.19816540  0.48710986    -0.77800
O1284       O  0.64274146  0.18181288  0.39815140    -0.78000
C1285       C  0.63890765  0.19191301  0.35255582     1.02600
Cr1286     Cr  0.56465436  0.13419083  0.34977667     1.93700
Cr1287     Cr  0.53429779  0.14517507  0.45552558     1.93200
Cr1288     Cr  0.60863044  0.15276550  0.45556043     1.39100
O1289       O  0.56962746  0.14403042  0.42016300    -1.23100
O1290       O  0.84541635  0.43556846  0.34861165    -0.85300
O1291       O  0.85692563  0.38082977  0.35311972    -0.82400
C1292       C  0.85753599  0.35406389  0.36974385     0.98100
O1293       O  0.83073192  0.33039451  0.39347802    -0.82400
O1294       O  0.84353557  0.36954830  0.49110587    -0.85000
C1295       C  0.84309949  0.39233235  0.52340878     1.02700
O1296       O  0.82359796  0.40588630  0.51507416    -0.77800
O1297       O  0.83851385  0.44941518  0.43109841    -0.78000
C1298       C  0.85568161  0.45727105  0.38762217     1.02600
O1299       O  0.77078836  0.38745047  0.32716680    -0.85300
O1300       O  0.78153474  0.33068051  0.32805863    -0.82400
C1301       C  0.75682900  0.30570548  0.35513463     0.98200
O1302       O  0.75727181  0.30681271  0.40602456    -0.82400
O1303       O  0.77237915  0.33600997  0.50968253    -0.85000
C1304       C  0.75298392  0.34873552  0.52122922     1.02600
O1305       O  0.75042885  0.36931144  0.48866466    -0.77800
O1306       O  0.76360047  0.41215617  0.40057155    -0.78000
C1307       C  0.75529832  0.40121133  0.35259217     1.02600
Cr1308     Cr  0.81264775  0.38298182  0.34512689     1.93700
Cr1309     Cr  0.80094368  0.33892178  0.44647035     1.93200
Cr1310     Cr  0.79461940  0.40671586  0.45458174     1.39100
O1311       O  0.80263912  0.37666268  0.41531549    -1.23100
C1312       C  0.72808746  0.27446749  0.32633899     0.03200
C1313       C  0.73255889  0.26899646  0.27178411    -0.13000
C1314       C  0.70707526  0.23894023  0.24364512     0.00700
C1315       C  0.67538439  0.21525395  0.26958119    -0.11500
C1316       C  0.67041051  0.21978087  0.32440187     0.03200
C1317       C  0.69699084  0.24923439  0.35279624    -0.10900
H1318       H  0.75715302  0.28713085  0.25184130     0.08700
H1319       H  0.65602199  0.19153641  0.24863352     0.06300
H1320       H  0.69335064  0.25245653  0.39526539     0.06100
C1321       C  0.89944941  0.10958251  0.99032517     0.03200
C1322       C  0.90041517  0.10584635  0.93423618    -0.13000
C1323       C  0.87345844  0.07601659  0.90802279     0.00700
C1324       C  0.84379005  0.05178760  0.93724949    -0.11500
C1325       C  0.84223485  0.05457780  0.99315841     0.03200
C1326       C  0.87063369  0.08330274  0.02002984    -0.10900
H1327       H  0.92366999  0.12452484  0.91186138     0.08700
H1328       H  0.82303731  0.02874643  0.91667734     0.06300
H1329       H  0.86992502  0.08568806  0.06340445     0.06100
C1330       C  0.84477823  0.23577905  0.99381742     0.03200
C1331       C  0.87248382  0.23570957  0.02276287    -0.13000
C1332       C  0.90294248  0.23939069  0.99584461     0.00700
C1333       C  0.90574689  0.24454481  0.93950025    -0.11500
C1334       C  0.87869730  0.24569629  0.91059706     0.03200
C1335       C  0.84783470  0.23970990  0.93793265    -0.10900
H1336       H  0.87011336  0.23243496  0.06600250     0.08700
H1337       H  0.92983842  0.24978814  0.91861738     0.06300
H1338       H  0.82710683  0.24104739  0.91596657     0.06100
C1339       C  0.79797618  0.14301537  0.38678589     0.03200
C1340       C  0.83501794  0.16219371  0.39166566    -0.13000
C1341       C  0.85334509  0.14347167  0.38907553     0.00700
C1342       C  0.83614309  0.10842244  0.40701952    -0.11500
C1343       C  0.79926234  0.08810219  0.39900189     0.03200
C1344       C  0.78053267  0.10706119  0.40185887    -0.10900
H1345       H  0.84934590  0.18908303  0.37693442     0.08700
H1346       H  0.85177240  0.09539329  0.40838173     0.06300
H1347       H  0.75206650  0.09317833  0.39939697     0.06100
O1348       O  0.53104404  0.25904689  0.01960444    -0.85300
O1349       O  0.51470250  0.19048396  0.00532166    -0.82400
C1350       C  0.52951869  0.18299484  0.04211138     0.98100
O1351       O  0.51733861  0.17745104  0.08925424    -0.82400
O1352       O  0.49811817  0.19870567  0.18035172    -0.85000
C1353       C  0.51542556  0.23118503  0.19308318     1.02700
O1354       O  0.51579922  0.25475322  0.16270239    -0.77800
O1355       O  0.50655614  0.28351250  0.06693102    -0.78000
C1356       C  0.53284830  0.28626898  0.04114545     1.02600
O1357       O  0.95812297  0.23995002  0.00009061    -0.85300
O1358       O  0.94138415  0.17071917  0.99561507    -0.82400
C1359       C  0.92899908  0.14068876  0.01706601     0.98200
O1360       O  0.94176509  0.13679377  0.06027248    -0.82400
O1361       O  0.92210556  0.16106747  0.14846236    -0.85000
C1362       C  0.92172627  0.18200262  0.18343767     1.02600
O1363       O  0.94114824  0.21484538  0.17835789    -0.77800
O1364       O  0.93058311  0.23505711  0.07660419    -0.78000
C1365       C  0.93187130  0.23801310  0.02589159     1.02600
Cr1366     Cr  0.48536225  0.21408653  0.00985381     1.93700
Cr1367     Cr  0.96875217  0.17128162  0.11942422     1.93200
Cr1368     Cr  0.97282928  0.24427319  0.11991294     1.39100
O1369       O  0.97576048  0.20981651  0.08472924    -1.23100
O1370       O  0.76143248  0.43798592  0.01013794    -0.85300
O1371       O  0.69265942  0.42176021  0.01792155    -0.82400
C1372       C  0.66473257  0.41997176  0.03587056     0.98100
O1373       O  0.66661774  0.44636609  0.06040769    -0.82400
O1374       O  0.69303969  0.43418068  0.15630225    -0.85000
C1375       C  0.71617666  0.43518310  0.18831590     1.02700
O1376       O  0.74898314  0.45603159  0.18056059    -0.77800
O1377       O  0.77726846  0.44146095  0.09422977    -0.78000
C1378       C  0.77216355  0.42691698  0.04864608     1.02600
O1379       O  0.78150597  0.51226391  0.99527171    -0.85300
O1380       O  0.71268449  0.49643692  0.99575291    -0.82400
C1381       C  0.71153625  0.52071107  0.02383780     0.98200
O1382       O  0.71343790  0.52051747  0.07461920    -0.82400
O1383       O  0.72920435  0.00493715  0.18238968    -0.85000
C1384       C  0.76127153  0.02320969  0.19402691     1.02600
O1385       O  0.78396249  0.02752973  0.15893058    -0.77800
O1386       O  0.81398665  0.51537135  0.06463685    -0.78000
C1387       C  0.81074337  0.52648414  0.01965390     1.02600
Cr1388     Cr  0.73729930  0.46780355  0.01033646     1.93700
Cr1389     Cr  0.70359447  0.47689916  0.11376530     1.93200
Cr1390     Cr  0.77787071  0.48481482  0.11866278     1.39100
O1391       O  0.73996155  0.47633391  0.08080602    -1.23100
O1392       O  0.69221507  0.21577127  0.02312946    -0.85300
O1393       O  0.76043873  0.27014649  0.01535591    -0.82400
C1394       C  0.77145307  0.29218359  0.05414897     0.98100
O1395       O  0.77761985  0.28330494  0.09889841    -0.82400
O1396       O  0.75042335  0.24087402  0.18481206    -0.85000
C1397       C  0.71750785  0.22879911  0.19260514     1.02700
O1398       O  0.69456311  0.20607662  0.16072281    -0.77800
O1399       O  0.66800212  0.16583298  0.06506863    -0.78000
C1400       C  0.66470447  0.18875400  0.03962821     1.02600
O1401       O  0.71552175  0.16386589  0.99863002    -0.85300
O1402       O  0.78381910  0.21854954  0.99631354    -0.82400
C1403       C  0.81303548  0.23331722  0.02092011     0.98200
O1404       O  0.81580836  0.24676807  0.06721594    -0.82400
O1405       O  0.78722243  0.20396579  0.15403879    -0.85000
C1406       C  0.76451850  0.18215503  0.18594813     1.02600
O1407       O  0.73229099  0.17142974  0.17903684    -0.77800
O1408       O  0.71654846  0.14104119  0.07688000    -0.78000
C1409       C  0.71440743  0.13872122  0.02616408     1.02600
Cr1410     Cr  0.73833820  0.21666891  0.01413644     1.93700
Cr1411     Cr  0.77965049  0.24126419  0.12234069     1.93200
Cr1412     Cr  0.70600587  0.17431097  0.11709412     1.39100
O1413       O  0.74183570  0.21114733  0.08432373    -1.23100
C1414       C  0.70866671  0.10568454  0.99860609     0.03200
C1415       C  0.69578414  0.09862533  0.94564101    -0.13000
C1416       C  0.68820541  0.06692740  0.91933604     0.00700
C1417       C  0.69467101  0.04234370  0.94621630    -0.11500
C1418       C  0.70768190  0.04864003  0.99930068     0.03200
C1419       C  0.71433059  0.08040585  0.02534936    -0.10900
H1420       H  0.68957985  0.11695141  0.92594590     0.08700
H1421       H  0.68837373  0.01759988  0.92626066     0.06300
H1422       H  0.72401245  0.08550685  0.06629255     0.06100
C1423       C  0.78961421  0.38574097  0.08902148    -0.12200
C1424       C  0.77755226  0.39533565  0.04339111     0.04800
C1425       C  0.76766520  0.37244329  0.99792315    -0.07500
C1426       C  0.76644969  0.33930181  0.00135651    -0.08300
C1427       C  0.77638208  0.32888987  0.04871490    -0.02800
C1428       C  0.78946764  0.35359657  0.09206671     0.04000
N1429       N  0.80193849  0.34637498  0.14070888     0.66500
H1430       H  0.79858684  0.40301631  0.12407454     0.15400
H1431       H  0.75753265  0.32159495  0.96681633     0.15100
N1432       N  0.75930858  0.38251257  0.94797559     0.74200
O1433       O  0.83319554  0.35172304  0.14276570    -0.39200
O1434       O  0.78476091  0.34200491  0.18384351    -0.39200
O1435       O  0.78313968  0.40870515  0.92281367    -0.39900
O1436       O  0.73041865  0.36206934  0.92480236    -0.40000
C1437       C  0.56503698  0.15287518  0.04975747    -0.12200
C1438       C  0.56229532  0.18161605  0.03086130     0.04800
C1439       C  0.59261214  0.21086529  0.00873404    -0.07500
C1440       C  0.62542613  0.21199615  0.00960442    -0.08300
C1441       C  0.62870026  0.18406996  0.03119481    -0.02800
C1442       C  0.59754210  0.15344660  0.04906076     0.04000
N1443       N  0.59842008  0.12295584  0.06791962     0.66500
H1444       H  0.54188327  0.13008809  0.06633318     0.15400
H1445       H  0.64870494  0.23557407  0.99518921     0.15100
N1446       N  0.59136505  0.24117611  0.99008751     0.74200
O1447       O  0.59694106  0.11715957  0.11774618    -0.39200
O1448       O  0.59507838  0.09920504  0.03488139    -0.39200
O1449       O  0.61019865  0.27081070  0.01283935    -0.39900
O1450       O  0.57753520  0.23987628  0.94512234    -0.40000
C1451       C  0.60468431  0.38084751  0.07177384    -0.12200
C1452       C  0.62992630  0.38695878  0.03159180     0.04800
C1453       C  0.62226650  0.36023667  0.99238431    -0.07500
C1454       C  0.59007152  0.32795814  0.99524302    -0.08300
C1455       C  0.56546081  0.32148875  0.03676647    -0.02800
C1456       C  0.57307823  0.34862604  0.07511155     0.04000
N1457       N  0.55036116  0.34312526  0.12027311     0.66500
H1458       H  0.61022476  0.40062474  0.10287321     0.15400
H1459       H  0.58422931  0.30785511  0.96464879     0.15100
N1460       N  0.64646568  0.36544164  0.94926495     0.74200
O1461       O  0.55697688  0.33373164  0.16448419    -0.39200
O1462       O  0.52896444  0.35478666  0.11923528    -0.39200
O1463       O  0.65342132  0.34127156  0.93697515    -0.39900
O1464       O  0.65699830  0.39188839  0.91887668    -0.40000
C1465       C  0.76178627  0.12751338  0.30290809    -0.12200
C1466       C  0.78262956  0.15364541  0.34149123     0.04800
C1467       C  0.79610541  0.18973355  0.32785815    -0.07500
C1468       C  0.79303162  0.19854557  0.27472711    -0.08300
C1469       C  0.77449095  0.17210838  0.23595669    -0.02800
C1470       C  0.75754678  0.13639597  0.25102394     0.04000
N1471       N  0.73648856  0.10869575  0.21350304     0.66500
H1472       H  0.75049845  0.09965920  0.31094974     0.15400
H1473       H  0.80319011  0.22611323  0.26444994     0.15100
N1474       N  0.81219057  0.21744049  0.36765767     0.74200
O1475       O  0.75101756  0.10285689  0.17350810    -0.39200
O1476       O  0.70423216  0.08754462  0.22362551    -0.39200
O1477       O  0.83745951  0.24757478  0.35501659    -0.39900
O1478       O  0.79975344  0.21252564  0.41485753    -0.40000
C1479       C  0.74369915  0.03080509  0.28670771    -0.12200
C1480       C  0.77059017  0.03417903  0.25113575     0.04800
C1481       C  0.80345229  0.04200445  0.27333836    -0.07500
C1482       C  0.81077008  0.05320783  0.32709759    -0.08300
C1483       C  0.78595810  0.05701830  0.35983908    -0.02800
C1484       C  0.75050644  0.03971992  0.34145048     0.04000
N1485       N  0.72140727  0.03112919  0.37758555     0.66500
H1486       H  0.71690245  0.02038569  0.27218821     0.15400
H1487       H  0.83713383  0.06125534  0.34101877     0.15100
N1488       N  0.82935606  0.03793650  0.24274435     0.74200
O1489       O  0.69338361  0.02965834  0.36086202    -0.39200
O1490       O  0.72283837  0.02293236  0.42566454    -0.39200
O1491       O  0.86116458  0.06273178  0.24194003    -0.39900
O1492       O  0.82215004  0.00747564  0.22632980    -0.40000
C1493       C  0.92471901  0.18282325  0.28228368    -0.12200
C1494       C  0.90419842  0.16911202  0.23536540     0.04800
C1495       C  0.86797430  0.14501171  0.23949368    -0.07500
C1496       C  0.85259794  0.13539732  0.29036885    -0.08300
C1497       C  0.87283001  0.14963577  0.33766713    -0.02800
C1498       C  0.90920943  0.17363287  0.33335842     0.04000
N1499       N  0.93007590  0.19060694  0.37995417     0.66500
H1500       H  0.95273901  0.20183510  0.27920916     0.15400
H1501       H  0.82414772  0.11862058  0.29288782     0.15100
N1502       N  0.84600220  0.13338765  0.19281569     0.74200
O1503       O  0.95543973  0.18570040  0.39191434    -0.39200
O1504       O  0.92719183  0.21502669  0.40327049    -0.39200
O1505       O  0.83605807  0.10307534  0.17287872    -0.39900
O1506       O  0.83566437  0.15309439  0.17235338    -0.40000
C1507       C  0.95168557  0.02906267  0.35048952    -0.12200
C1508       C  0.95630945  0.05816324  0.38201460     0.04800
C1509       C  0.92645222  0.05505764  0.41055762    -0.07500
C1510       C  0.89479915  0.51968420  0.41999492    -0.08300
C1511       C  0.88931328  0.49219080  0.38402443    -0.02800
C1512       C  0.91899429  0.99726460  0.34859913     0.04000
N1513       N  0.91689100  0.96795974  0.31887430     0.65600
H1514       H  0.97389411  0.03051016  0.32816530     0.15400
H1515       H  0.87382444  0.51615629  0.44751966     0.15100
N1516       N  0.92872775  0.08377192  0.44230707     0.74200
O1517       O  0.90775197  0.96367411  0.27012192    -0.39200
O1518       O  0.92349735  0.44720052  0.33866099    -0.39200
O1519       O  0.49372731  0.00818792  0.33448203    -0.39900
O1520       O  0.95038621  0.57655176  0.50737963    -0.40000
C1521       C  0.94795661  0.36777141  0.32672522    -0.12200
C1522       C  0.95619552  0.35340670  0.37099209     0.04800
C1523       C  0.93052815  0.33698645  0.41199465    -0.07500
C1524       C  0.89809298  0.33619126  0.40888807    -0.08300
C1525       C  0.89006876  0.35121772  0.36547926    -0.02800
C1526       C  0.91485679  0.36616164  0.32283586     0.04000
N1527       N  0.90637852  0.37839734  0.27476059     0.66500
H1528       H  0.96713736  0.37966169  0.29448279     0.15400
H1529       H  0.87955603  0.32494058  0.44210200     0.15100
N1530       N  0.93787801  0.32340908  0.45929101     0.74200
O1531       O  0.93047664  0.40383379  0.24866519    -0.39200
O1532       O  0.87599294  0.36067180  0.25413164    -0.39200
O1533       O  0.94146095  0.33920666  0.50370031    -0.39900
O1534       O  0.93278188  0.29217327  0.45893413    -0.40000
C1535       C  0.62460751  0.02282811  0.41047360    -0.12200
C1536       C  0.60289980  0.49566729  0.36892900     0.04800
C1537       C  0.58313243  0.50323709  0.33192202    -0.07500
C1538       C  0.58595690  0.03737725  0.33635653    -0.08300
C1539       C  0.60563856  0.06293092  0.37608526    -0.02800
C1540       C  0.62665434  0.05596188  0.41145209     0.04000
N1541       N  0.65008383  0.08216677  0.44905630     0.66500
H1542       H  0.63981119  0.01771848  0.43973560     0.15400
H1543       H  0.56994682  0.04223254  0.30833333     0.15100
N1544       N  0.56006688  0.47700045  0.29419626     0.74200
O1545       O  0.64552196  0.07632810  0.49891121    -0.39200
O1546       O  0.67781853  0.10902692  0.43234572    -0.39200
O1547       O  0.52699110  0.46118216  0.30171784    -0.39900
O1548       O  0.57243835  0.47222825  0.25074883    -0.40000
C1549       C  0.64072572  0.27250859  0.62108665    -0.12200
C1550       C  0.62598028  0.25530934  0.67028605     0.04800
C1551       C  0.60090354  0.21908215  0.66995266    -0.07500
C1552       C  0.59107214  0.20055634  0.62090148    -0.08300
C1553       C  0.60593512  0.21786425  0.57193372    -0.02800
C1554       C  0.63087240  0.25409202  0.57214003     0.04000
N1555       N  0.64371414  0.27297948  0.52280397     0.66500
H1556       H  0.65855011  0.30088400  0.62047967     0.15400
H1557       H  0.57164452  0.17251249  0.62098609     0.15100
N1558       N  0.58445226  0.20122174  0.71872840     0.74200
O1559       O  0.62279384  0.27666529  0.49221865    -0.39200
O1560       O  0.67489351  0.28280102  0.50716241    -0.39200
O1561       O  0.55445631  0.19679785  0.73207696    -0.39900
O1562       O  0.60034261  0.19079791  0.74933486    -0.40000
C1563       C  0.74255598  0.37413947  0.60448956    -0.12200
C1564       C  0.73988772  0.34449251  0.57730370     0.04800
C1565       C  0.73384840  0.31490332  0.60819452    -0.07500
C1566       C  0.72505601  0.31345356  0.66262472    -0.08300
C1567       C  0.72067964  0.34043611  0.68764059    -0.02800
C1568       C  0.73579557  0.37326084  0.66011474     0.04000
N1569       N  0.74566797  0.40593915  0.68803524     0.66500
H1570       H  0.75235920  0.39886169  0.58308190     0.15400
H1571       H  0.71950133  0.28964390  0.68353352     0.15100
N1572       N  0.73620207  0.28578062  0.58514762     0.74200
O1573       O  0.75684606  0.41039509  0.73576928    -0.39200
O1574       O  0.74605545  0.43145753  0.66372749    -0.39200
O1575       O  0.76599883  0.28744393  0.58305646    -0.39900
O1576       O  0.70850385  0.25592229  0.58070076    -0.40000
C1577       C  0.65279908  0.36792290  0.63251765    -0.12200
C1578       C  0.62828518  0.35231038  0.67494419     0.04800
C1579       C  0.59256355  0.34222054  0.66542335    -0.07500
C1580       C  0.58151292  0.34200624  0.61266032    -0.08300
C1581       C  0.60572353  0.35322636  0.56922033    -0.02800
C1582       C  0.64196698  0.36753501  0.57998744     0.04000
N1583       N  0.66804774  0.37992767  0.53794490     0.66500
H1584       H  0.68037575  0.37690621  0.63820591     0.15400
H1585       H  0.55382371  0.33347477  0.60589744     0.15100
N1586       N  0.56723111  0.33087842  0.70862768     0.74200
O1587       O  0.69378656  0.41125020  0.53953328    -0.39200
O1588       O  0.66819916  0.35825518  0.50380343    -0.39200
O1589       O  0.57498888  0.34829815  0.75220440    -0.39900
O1590       O  0.53617017  0.30532736  0.70188936    -0.40000
C1591       C  0.76576476  0.20281266  0.76074536    -0.12200
C1592       C  0.78490456  0.21699920  0.71288230     0.04800
C1593       C  0.77183504  0.19656162  0.66497418    -0.07500
C1594       C  0.74095924  0.16267523  0.66657776    -0.08300
C1595       C  0.72217385  0.14898805  0.71496369    -0.02800
C1596       C  0.73516411  0.16960951  0.76223273     0.04000
N1597       N  0.71943210  0.15599839  0.81345366     0.66500
H1598       H  0.77507935  0.21709811  0.79851656     0.15400
H1599       H  0.73126344  0.14734308  0.62973100     0.15100
N1600       N  0.78913811  0.20980462  0.61446831     0.74200
O1601       O  0.73626215  0.14839487  0.84683152    -0.39200
O1602       O  0.69406005  0.16001428  0.82976504    -0.39200
O1603       O  0.80277785  0.19403901  0.58949757    -0.39900
O1604       O  0.78538445  0.23320227  0.59071714    -0.40000
C1605       C  0.88589968  0.14719684  0.69400126    -0.12200
C1606       C  0.91801558  0.14692773  0.69463307     0.04800
C1607       C  0.95015794  0.17940499  0.69271150    -0.07500
C1608       C  0.94970724  0.21140207  0.69299303    -0.08300
C1609       C  0.91756509  0.21167019  0.69535467    -0.02800
C1610       C  0.88525771  0.17904997  0.69535534     0.04000
N1611       N  0.85171907  0.17759636  0.70159649     0.66500
H1612       H  0.86101627  0.12248888  0.69657330     0.15400
H1613       H  0.97464683  0.23616516  0.69234477     0.15100
N1614       N  0.98344269  0.18033594  0.69092494     0.74200
O1615       O  0.82631590  0.15781692  0.67103263    -0.39200
O1616       O  0.84564198  0.19072311  0.74320225    -0.39200
O1617       O  0.99916371  0.18409583  0.64649438    -0.39900
O1618       O  0.99927659  0.18233921  0.73416881    -0.40000
C1619       C  0.75576576  0.98637771  0.75294480    -0.12200
C1620       C  0.78038487  0.00389591  0.71143838     0.04800
C1621       C  0.77017839  0.01827017  0.66900387    -0.07500
C1622       C  0.73710696  0.01709796  0.67109787    -0.08300
C1623       C  0.71362164  0.00156561  0.71480758    -0.02800
C1624       C  0.72283751  0.98463376  0.75468120     0.04000
N1625       N  0.69929397  0.96583131  0.79804735     0.66500
H1626       H  0.76213745  0.97391096  0.78512245     0.15400
H1627       H  0.73064682  0.03000551  0.63973381     0.15100
N1628       N  0.79369188  0.03585566  0.62515249     0.74200
O1629       O  0.66834686  0.43513830  0.77571311    -0.39200
O1630       O  0.70714784  0.97771134  0.84551726    -0.39200
O1631       O  0.78732068  0.02119848  0.57934198    -0.39900
O1632       O  0.81744386  0.06791953  0.63009513    -0.40000
C1633       C  0.97158163  0.38960835  0.98532803    -0.12200
C1634       C  0.94265289  0.38674381  0.01603416     0.04800
C1635       C  0.90854442  0.36665948  0.99287861    -0.07500
C1636       C  0.90541613  0.36001092  0.93720530    -0.08300
C1637       C  0.93518665  0.36787659  0.90549812    -0.02800
C1638       C  0.96795067  0.37986083  0.93114959     0.04000
N1639       N  0.99775071  0.38179207  0.90302006     0.66500
H1640       H  0.48773500  0.38471877  0.01388400     0.15400
H1641       H  0.87929164  0.34588267  0.91932495     0.15100
N1642       N  0.87714080  0.35146062  0.02552744     0.74200
O1643       O  0.51754264  0.39841688  0.89326120    -0.39200
O1644       O  0.00324345  0.35591005  0.90507666    -0.39200
O1645       O  0.84817130  0.34636042  0.00647482    -0.39900
O1646       O  0.87754940  0.33986018  0.07164540    -0.40000
C1647       C  0.57568585  0.51066990  0.95385760    -0.12200
C1648       C  0.55580052  0.99764810  0.90383418     0.04800
C1649       C  0.51917627  0.98405220  0.90433273    -0.07500
C1650       C  0.50121195  0.97599526  0.95339049    -0.08300
C1651       C  0.52108977  0.47794086  0.00417925    -0.02800
C1652       C  0.55796784  0.50018191  0.00348182     0.04000
N1653       N  0.57750380  0.51253201  0.05251870     0.66500
H1654       H  0.60416434  0.52812943  0.95343260     0.15400
H1655       H  0.47284608  0.96515434  0.95284339     0.15100
N1656       N  0.50029266  0.98015955  0.85566182     0.74200
O1657       O  0.60033313  0.50381438  0.06399880    -0.39200
O1658       O  0.57082986  0.53070642  0.08564514    -0.39200
O1659       O  0.48353184  0.95024038  0.83286518    -0.39900
O1660       O  0.49798438  0.00598875  0.83783329    -0.40000
C1661       C  0.90634757  0.44890538  0.96849741    -0.12200
C1662       C  0.92200387  0.47297059  0.01179761     0.04800
C1663       C  0.93515789  0.01572538  0.00386547    -0.07500
C1664       C  0.93582607  0.02683317  0.95086795    -0.08300
C1665       C  0.92357568  0.00243307  0.90752493    -0.02800
C1666       C  0.90638112  0.46053433  0.91642195     0.04000
N1667       N  0.89329392  0.43487033  0.87355440     0.66500
H1668       H  0.89767966  0.42114968  0.97292907     0.15400
H1669       H  0.94540186  0.05469779  0.94378720     0.15100
N1670       N  0.44301840  0.03634785  0.04322633     0.74200
O1671       O  0.91427282  0.43539228  0.83764749    -0.39200
O1672       O  0.86235822  0.40855753  0.87628280    -0.39200
O1673       O  0.46688427  0.06809058  0.03569898    -0.39900
O1674       O  0.42778738  0.02761083  0.08846279    -0.40000
C1675       C  0.50173252  0.56858077  0.66189221     0.03200
C1676       C  0.52783322  0.56528059  0.69072341    -0.13000
C1677       C  0.55971628  0.57178684  0.66567921     0.00700
C1678       C  0.56516760  0.58221849  0.61130738    -0.11500
C1679       C  0.53959605  0.58619396  0.58229572     0.03200
C1680       C  0.50768175  0.57834566  0.60757015    -0.10900
H1681       H  0.52335094  0.55770464  0.73264323     0.08700
H1682       H  0.59003761  0.58857612  0.59192795     0.06300
H1683       H  0.48842673  0.58228493  0.58589938     0.06100
C1684       C  0.50088135  0.87730870  0.65897238     0.03200
C1685       C  0.50419526  0.87578558  0.60282051    -0.13000
C1686       C  0.53281370  0.90329563  0.57553020     0.00700
C1687       C  0.55685534  0.93380706  0.60392378    -0.11500
C1688       C  0.55484293  0.93584739  0.65984736     0.03200
C1689       C  0.52688048  0.90732487  0.68752938    -0.10900
H1690       H  0.48598309  0.85202422  0.58081605     0.08700
H1691       H  0.57923169  0.95486978  0.58282475     0.06300
H1692       H  0.52522969  0.90872355  0.73092170     0.06100
C1693       C  0.94170194  0.96964207  0.05624476     0.03200
C1694       C  0.92739212  0.93330840  0.06772866    -0.13000
C1695       C  0.94954244  0.91809743  0.06290076     0.00700
C1696       C  0.98544669  0.94109144  0.07537940    -0.11500
C1697       C  0.49804652  0.97318340  0.05324596     0.03200
C1698       C  0.97642588  0.48638037  0.06054621    -0.10900
H1699       H  0.89909115  0.91689922  0.06436582     0.08700
H1700       H  0.50255030  0.92834442  0.07306222     0.06300
H1701       H  0.49344510  0.51413082  0.04321031     0.06100
O1702       O  0.83851470  0.51882765  0.67887627    -0.85300
O1703       O  0.89338557  0.58625329  0.68890874    -0.82400
C1704       C  0.92028854  0.61357154  0.70621134     0.98100
O1705       O  0.94366105  0.61017344  0.73069729    -0.82400
O1706       O  0.90426044  0.58617022  0.82483773    -0.85000
C1707       C  0.88142676  0.56429162  0.85702754     1.02700
O1708       O  0.86726813  0.53098832  0.84929156    -0.77800
O1709       O  0.82451782  0.50539133  0.76344661    -0.78000
C1710       C  0.81643062  0.51034224  0.71728627     1.02600
O1711       O  0.88990030  0.49478386  0.66370509    -0.85300
O1712       O  0.94482772  0.56246561  0.66640658    -0.82400
C1713       C  0.96898335  0.56195639  0.69452664     0.98200
O1714       O  0.96567535  0.55868963  0.74492310    -0.82400
O1715       O  0.93378248  0.54389701  0.84690344    -0.85000
C1716       C  0.91972396  0.51097273  0.85333187     1.02600
O1717       O  0.90057937  0.49062008  0.81673468    -0.77800
O1718       O  0.85984360  0.96373892  0.73199880    -0.78000
C1719       C  0.87530004  0.96620883  0.68754369     1.02600
Cr1720     Cr  0.89197891  0.54033135  0.67975700     1.93700
Cr1721     Cr  0.93400509  0.57179854  0.78347425     1.93200
Cr1722     Cr  0.86464955  0.50029561  0.78690983     1.39100
O1723       O  0.89637710  0.53711638  0.74989502    -1.23100
O1724       O  0.89528359  0.74922455  0.68865815    -0.85300
O1725       O  0.84235539  0.76394289  0.68054558    -0.82400
C1726       C  0.82054446  0.75184320  0.71912238     0.98100
O1727       O  0.82929459  0.76606073  0.76501187    -0.82400
O1728       O  0.87260585  0.78321519  0.85108633    -0.85000
C1729       C  0.88644213  0.76403052  0.86006995     1.02700
O1730       O  0.90868413  0.76305923  0.82747831    -0.77800
O1731       O  0.94585269  0.77368253  0.72919944    -0.78000
C1732       C  0.92145019  0.74733640  0.70499648     1.02600
O1733       O  0.94797828  0.82340860  0.66367495    -0.85300
O1734       O  0.89376127  0.83765970  0.66308476    -0.82400
C1735       C  0.87725276  0.85071984  0.68728953     0.98200
O1736       O  0.86393287  0.84014195  0.73356180    -0.82400
O1737       O  0.90790056  0.85588562  0.82127058    -0.85000
C1738       C  0.92960133  0.85498716  0.85350741     1.02600
O1739       O  0.94222420  0.83511526  0.84398820    -0.77800
O1740       O  0.97111000  0.84838146  0.74141381    -0.78000
C1741       C  0.97226316  0.84886532  0.69065957     1.02600
Cr1742     Cr  0.89547700  0.79435264  0.67986801     1.93700
Cr1743     Cr  0.87085752  0.81075417  0.78885696     1.93200
Cr1744     Cr  0.93892328  0.80503869  0.78195841     1.39100
O1745       O  0.90135167  0.80345949  0.75029114    -1.23100
O1746       O  0.68700039  0.59010681  0.69635567    -0.85300
O1747       O  0.67174088  0.52122839  0.68329402    -0.82400
C1748       C  0.68231378  0.50952074  0.72098432     0.98100
O1749       O  0.66728715  0.50308859  0.76623461    -0.82400
O1750       O  0.64875061  0.52680051  0.85493829    -0.85000
C1751       C  0.66874063  0.55943173  0.86584885     1.02700
O1752       O  0.66959760  0.58335193  0.83578871    -0.77800
O1753       O  0.66070121  0.61354588  0.74148493    -0.78000
C1754       C  0.68782417  0.61706732  0.71733313     1.02600
O1755       O  0.61324864  0.56894211  0.66942437    -0.85300
O1756       O  0.59805393  0.49982978  0.66329871    -0.82400
C1757       C  0.58347780  0.96715406  0.68808635     0.98200
O1758       O  0.59503032  0.96322060  0.73240331    -0.82400
O1759       O  0.57631443  0.49161794  0.81890245    -0.85000
C1760       C  0.57661749  0.51262685  0.85428740     1.02600
O1761       O  0.59728847  0.54527326  0.84970791    -0.77800
O1762       O  0.58609870  0.56497735  0.74642038    -0.78000
C1763       C  0.58754904  0.56816502  0.69559392     1.02600
Cr1764     Cr  0.64162031  0.54456145  0.68404800     1.93700
Cr1765     Cr  0.62234977  0.50011131  0.78918676     1.93200
Cr1766     Cr  0.62840912  0.57381635  0.78963059     1.39100
O1767       O  0.63090820  0.53914914  0.75416972    -1.23100
C1768       C  0.87313921  0.87845955  0.65971329     0.03200
C1769       C  0.86760481  0.87572989  0.60361917    -0.13000
C1770       C  0.86360357  0.90152362  0.57623288     0.00700
C1771       C  0.86816936  0.93158293  0.60464884    -0.11500
C1772       C  0.87267171  0.93446785  0.66045963     0.03200
C1773       C  0.87450577  0.90741353  0.68833475    -0.10900
H1774       H  0.86386823  0.85225670  0.58214297     0.08700
H1775       H  0.86541627  0.95181665  0.58367407     0.06300
H1776       H  0.87829741  0.90953679  0.73151795     0.06100
C1777       C  0.72811389  0.90582073  0.32693606     0.03200
C1778       C  0.69860062  0.90396807  0.35404944    -0.13000
C1779       C  0.67191637  0.90593402  0.32481180     0.00700
C1780       C  0.67576227  0.91145829  0.26907800    -0.11500
C1781       C  0.70613388  0.91587836  0.24240133     0.03200
C1782       C  0.73131554  0.91147719  0.27119582    -0.10900
H1783       H  0.69578210  0.89981039  0.39711388     0.08700
H1784       H  0.65640776  0.91526027  0.24739021     0.06300
H1785       H  0.75488438  0.91481795  0.25063345     0.06100
C1786       C  0.53957057  0.71799088  0.33404427     0.03200
C1787       C  0.03075072  0.71288297  0.28520746    -0.13000
C1788       C  0.02757150  0.73851079  0.25530291     0.00700
C1789       C  0.03293187  0.76948346  0.28116757    -0.11500
C1790       C  0.54126612  0.77541930  0.33185810     0.03200
C1791       C  0.54387504  0.74882987  0.36056879    -0.10900
H1792       H  0.02610158  0.68863928  0.26527077     0.08700
H1793       H  0.02927741  0.78860317  0.25870610     0.06300
H1794       H  0.54910303  0.75207588  0.40337019     0.06100
C1795       C  0.63850729  0.83451500  0.72006805     0.03200
C1796       C  0.61682933  0.79743056  0.72101781    -0.13000
C1797       C  0.63280111  0.77640176  0.71988781     0.00700
C1798       C  0.66738591  0.79113540  0.73924391    -0.11500
C1799       C  0.69031330  0.82755697  0.72996145     0.03200
C1800       C  0.67434080  0.84903590  0.73446634    -0.10900
H1801       H  0.59036587  0.78556549  0.70439990     0.08700
H1802       H  0.67805526  0.77346985  0.74217203     0.06300
H1803       H  0.69011330  0.87744430  0.73272495     0.06100
O1804       O  0.51938374  0.88308597  0.35321377    -0.85300
O1805       O  0.58751441  0.93726051  0.34323370    -0.82400
C1806       C  0.59745701  0.95986426  0.38115861     0.98100
O1807       O  0.60243658  0.95202500  0.42747075    -0.82400
O1808       O  0.57662762  0.91006671  0.51405238    -0.85000
C1809       C  0.54356577  0.89637760  0.52257887     1.02700
O1810       O  0.52100263  0.87365335  0.49044774    -0.77800
O1811       O  0.99515048  0.83378526  0.39975538    -0.78000
C1812       C  0.99156677  0.85687347  0.37508574     1.02600
O1813       O  0.54284319  0.83115025  0.33117852    -0.85300
O1814       O  0.61064261  0.88569733  0.32773479    -0.82400
C1815       C  0.64001401  0.90287268  0.35135530     0.98200
O1816       O  0.64262787  0.91805131  0.39611130    -0.82400
O1817       O  0.61482274  0.87472075  0.48187120    -0.85000
C1818       C  0.59404227  0.85577723  0.51811805     1.02600
O1819       O  0.56131401  0.84231863  0.51125234    -0.77800
O1820       O  0.54610592  0.81014731  0.40971027    -0.78000
C1821       C  0.54402928  0.80733231  0.35910444     1.02600
Cr1822     Cr  0.56529057  0.88396861  0.34430713     1.93700
Cr1823     Cr  0.60621345  0.91129168  0.45148182     1.93200
Cr1824     Cr  0.53388655  0.84270041  0.44829817     1.39100
O1825       O  0.56882672  0.87986952  0.41456970    -1.23100
O1826       O  0.58878620  0.60505376  0.34647311    -0.85300
O1827       O  0.51996208  0.58950996  0.35956690    -0.82400
C1828       C  0.99202083  0.58877961  0.39273733     0.98100
O1829       O  0.99596513  0.61613499  0.41714456    -0.82400
O1830       O  0.52542315  0.60439038  0.49948173    -0.85000
C1831       C  0.54903510  0.60491918  0.53004870     1.02700
O1832       O  0.58169715  0.62461462  0.51976762    -0.77800
O1833       O  0.60492085  0.60640983  0.43003499    -0.78000
C1834       C  0.59951912  0.59307135  0.38351172     1.02600
O1835       O  0.60997256  0.67885991  0.33116120    -0.85300
O1836       O  0.54112364  0.66367861  0.33612005    -0.82400
C1837       C  0.54224412  0.68928661  0.36318167     0.98200
O1838       O  0.54496718  0.68980600  0.41403127    -0.82400
O1839       O  0.56401043  0.67666980  0.51612740    -0.85000
C1840       C  0.59665522  0.69711842  0.52144989     1.02600
O1841       O  0.61795287  0.69727385  0.48681529    -0.77800
O1842       O  0.64337915  0.67991904  0.39798419    -0.78000
C1843       C  0.63976949  0.69166651  0.35373735     1.02600
Cr1844     Cr  0.56534234  0.63499914  0.34926188     1.93700
Cr1845     Cr  0.53552785  0.64646945  0.45512228     1.93200
Cr1846     Cr  0.60875795  0.65141144  0.45507587     1.39100
O1847       O  0.57024277  0.64423947  0.41975204    -1.23100
O1848       O  0.84551601  0.93620934  0.34732643    -0.85300
O1849       O  0.85746980  0.88155889  0.35261956    -0.82400
C1850       C  0.85795361  0.85475616  0.36945138     0.98100
O1851       O  0.83124916  0.83127828  0.39361624    -0.82400
O1852       O  0.84538618  0.87056547  0.49120316    -0.85000
C1853       C  0.84563051  0.89365867  0.52352806     1.02700
O1854       O  0.82664378  0.90783802  0.51534614    -0.77800
O1855       O  0.84088336  0.95112127  0.43022943    -0.78000
C1856       C  0.85666491  0.95851813  0.38551994     1.02600
O1857       O  0.77077634  0.88747955  0.32947375    -0.85300
O1858       O  0.78200531  0.83110330  0.32982209    -0.82400
C1859       C  0.75741288  0.80633318  0.35729476     0.98200
O1860       O  0.75801277  0.80797883  0.40813789    -0.82400
O1861       O  0.77437471  0.83775410  0.51120801    -0.85000
C1862       C  0.75507212  0.85056421  0.52288634     1.02600
O1863       O  0.75311615  0.87191537  0.49119359    -0.77800
O1864       O  0.76555448  0.91403643  0.40226946    -0.78000
C1865       C  0.75613515  0.90208653  0.35493512     1.02600
Cr1866     Cr  0.81304508  0.88353383  0.34575755     1.93700
Cr1867     Cr  0.80226179  0.84016986  0.44749047     1.93200
Cr1868     Cr  0.79709536  0.90869094  0.45555216     1.39100
O1869       O  0.80408144  0.87795613  0.41626615    -1.23100
C1870       C  0.72880198  0.77476242  0.32885785     0.03200
C1871       C  0.73338087  0.76929762  0.27432989    -0.13000
C1872       C  0.70794073  0.73930655  0.24610597     0.00700
C1873       C  0.67633424  0.71556672  0.27179907    -0.11500
C1874       C  0.67137499  0.71981825  0.32656449     0.03200
C1875       C  0.69778801  0.74926695  0.35528870    -0.10900
H1876       H  0.75798205  0.78740727  0.25443760     0.08700
H1877       H  0.65700704  0.69190983  0.25066538     0.06300
H1878       H  0.69404543  0.75231694  0.39777522     0.06100
C1879       C  0.89913106  0.61004609  0.99145844     0.03200
C1880       C  0.90114572  0.60608354  0.93551798    -0.13000
C1881       C  0.87442163  0.57626030  0.90877856     0.00700
C1882       C  0.84414725  0.55245892  0.93697087    -0.11500
C1883       C  0.84192661  0.55518349  0.99257411     0.03200
C1884       C  0.86985894  0.58375257  0.02032167    -0.10900
H1885       H  0.92482832  0.62460684  0.91383748     0.08700
H1886       H  0.82343838  0.52956149  0.91603455     0.06300
H1887       H  0.86839448  0.58601276  0.06361622     0.06100
C1888       C  0.84462349  0.73589164  0.99616216     0.03200
C1889       C  0.87236190  0.73608336  0.02531190    -0.13000
C1890       C  0.90312446  0.74047989  0.99863856     0.00700
C1891       C  0.90619243  0.74603365  0.94247073    -0.11500
C1892       C  0.87916821  0.74707544  0.91345385     0.03200
C1893       C  0.84798958  0.74044719  0.94039868    -0.10900
H1894       H  0.86978566  0.73247015  0.06848180     0.08700
H1895       H  0.93049018  0.75170636  0.92182706     0.06300
H1896       H  0.82725853  0.74173563  0.91836589     0.06100
C1897       C  0.79447083  0.64199795  0.39201890     0.03200
C1898       C  0.83050255  0.66429359  0.40441479    -0.13000
C1899       C  0.85360390  0.65100489  0.39367754     0.00700
C1900       C  0.83974702  0.61452010  0.40330571    -0.11500
C1901       C  0.80351270  0.59158673  0.39317072     0.03200
C1902       C  0.78067345  0.60560614  0.40113500    -0.10900
H1903       H  0.84152751  0.69264031  0.40187667     0.08700
H1904       H  0.85674525  0.60313084  0.39883227     0.06300
H1905       H  0.75263562  0.58871711  0.39392641     0.06100
O1906       O  0.52939001  0.76279146  0.02232307    -0.85300
O1907       O  0.51691203  0.69558298  0.01023873    -0.82400
C1908       C  0.53037200  0.68717245  0.04816765     0.98100
O1909       O  0.51595737  0.67940458  0.09381004    -0.82400
O1910       O  0.49424186  0.69940253  0.18290794    -0.85000
C1911       C  0.51273287  0.73189132  0.19524650     1.02700
O1912       O  0.51357764  0.75578366  0.16502256    -0.77800
O1913       O  0.50399292  0.78589286  0.07061620    -0.78000
C1914       C  0.53019047  0.78966212  0.04336357     1.02600
O1915       O  0.95812096  0.74098648  0.00268943    -0.85300
O1916       O  0.94057699  0.67129689  0.99784786    -0.82400
C1917       C  0.92814443  0.64116387  0.01906361     0.98200
O1918       O  0.94038243  0.63710139  0.06274786    -0.82400
O1919       O  0.92217730  0.66096678  0.15425883    -0.85000
C1920       C  0.92094358  0.68299998  0.18634883     1.02600
O1921       O  0.94040021  0.71564738  0.17963259    -0.77800
O1922       O  0.93093000  0.73645587  0.07924378    -0.78000
C1923       C  0.93205397  0.73923389  0.02859260     1.02600
Cr1924     Cr  0.48516721  0.71685808  0.01184083     1.93700
Cr1925     Cr  0.96819188  0.67126395  0.12188671     1.93200
Cr1926     Cr  0.97284987  0.74476787  0.12246210     1.39100
O1927       O  0.97520111  0.71005235  0.08719318    -1.23100
O1928       O  0.75828296  0.93497196  0.01349322    -0.85300
O1929       O  0.69097888  0.92191381  0.02310345    -0.82400
C1930       C  0.66348305  0.92164523  0.03966986     0.98100
O1931       O  0.66666984  0.94845069  0.06433764    -0.82400
O1932       O  0.69323185  0.93449180  0.15928477    -0.85000
C1933       C  0.71629708  0.93412111  0.19012299     1.02700
O1934       O  0.74930217  0.95348211  0.18131698    -0.77800
O1935       O  0.78059838  0.94306711  0.09414320    -0.78000
C1936       C  0.77244017  0.92640536  0.05013966     1.02600
O1937       O  0.78231397  0.00953415  0.99644807    -0.85300
O1938       O  0.71419616  0.99702560  0.99945287    -0.82400
C1939       C  0.71313305  0.02140814  0.02724499     0.98200
O1940       O  0.71527277  0.02165645  0.07817329    -0.82400
O1941       O  0.72916554  0.50593724  0.17749364    -0.85000
C1942       C  0.76153997  0.52645981  0.18537958     1.02600
O1943       O  0.78327716  0.52907246  0.14972639    -0.77800
O1944       O  0.81446159  0.01775334  0.06891174    -0.78000
C1945       C  0.81128248  0.02600704  0.02158663     1.02600
Cr1946     Cr  0.73682002  0.96676736  0.01400940     1.93700
Cr1947     Cr  0.70450548  0.97764879  0.11734207     1.93200
Cr1948     Cr  0.77888251  0.98476408  0.12188089     1.39100
O1949       O  0.74065483  0.97644740  0.08433147    -1.23100
O1950       O  0.69339236  0.71761309  0.02588223    -0.85300
O1951       O  0.76213010  0.77037108  0.01760713    -0.82400
C1952       C  0.77197291  0.79213779  0.05671835     0.98100
O1953       O  0.77707421  0.78307700  0.10199232    -0.82400
O1954       O  0.75098082  0.74069438  0.18755949    -0.85000
C1955       C  0.71819339  0.72909207  0.19519018     1.02700
O1956       O  0.69510657  0.70664976  0.16324867    -0.77800
O1957       O  0.66751381  0.66738716  0.06748619    -0.78000
C1958       C  0.66536381  0.69122665  0.04246651     1.02600
O1959       O  0.71428933  0.66397041  0.00055248    -0.85300
O1960       O  0.78336983  0.71721842  0.99906955    -0.82400
C1961       C  0.81274927  0.73298098  0.02314967     0.98200
O1962       O  0.81561618  0.74726875  0.06879602    -0.82400
O1963       O  0.78741672  0.70399684  0.15566096    -0.85000
C1964       C  0.76475701  0.68230165  0.18775969     1.02600
O1965       O  0.73238414  0.67112060  0.18061720    -0.77800
O1966       O  0.71512141  0.64053046  0.07818011    -0.78000
C1967       C  0.71295116  0.63850091  0.02743782     1.02600
Cr1968     Cr  0.73857615  0.71681218  0.01647288     1.93700
Cr1969     Cr  0.77967472  0.74126022  0.12456633     1.93200
Cr1970     Cr  0.70564837  0.67447117  0.11914250     1.39100
O1971       O  0.74180683  0.71111573  0.08657738    -1.23100
C1972       C  0.70723542  0.60566750  0.99883019     0.03200
C1973       C  0.69510543  0.59963530  0.94543154    -0.13000
C1974       C  0.68810143  0.56856436  0.91769132     0.00700
C1975       C  0.69441536  0.54350918  0.94344146    -0.11500
C1976       C  0.70648032  0.54857663  0.99691597     0.03200
C1977       C  0.71258716  0.57980715  0.02449672    -0.10900
H1978       H  0.68893656  0.61819056  0.92648847     0.08700
H1979       H  0.68857737  0.51924660  0.92232414     0.06300
H1980       H  0.72165348  0.58407073  0.06576428     0.06100
C1981       C  0.79211996  0.88660135  0.08906087    -0.12200
C1982       C  0.77801461  0.89500107  0.04463376     0.04800
C1983       C  0.76607061  0.87096261  0.00042049    -0.07500
C1984       C  0.76496443  0.83794223  0.00436823    -0.08300
C1985       C  0.77669411  0.82863318  0.05088282    -0.02800
C1986       C  0.79163151  0.85432035  0.09270521     0.04000
N1987       N  0.80542740  0.84790519  0.14060888     0.66500
H1988       H  0.80248603  0.90468478  0.12307108     0.15400
H1989       H  0.75459885  0.81938143  0.97094688     0.15100
N1990       N  0.75544188  0.87967419  0.95120565     0.74200
O1991       O  0.83850777  0.86160570  0.14576672    -0.39200
O1992       O  0.78599336  0.83719477  0.18195018    -0.39200
O1993       O  0.77729246  0.90683324  0.92559282    -0.39900
O1994       O  0.72698836  0.85733311  0.92871594    -0.40000
C1995       C  0.56556713  0.65612881  0.04303951    -0.12200
C1996       C  0.56442533  0.68770697  0.04005214     0.04800
C1997       C  0.59642427  0.71996000  0.03308856    -0.07500
C1998       C  0.62876575  0.72012849  0.02990348    -0.08300
C1999       C  0.63021138  0.68878109  0.03522859    -0.02800
C2000       C  0.59795794  0.65632536  0.04001766     0.04000
N2001       N  0.59759593  0.62330213  0.04171388     0.66500
H2002       H  0.54120396  0.63119814  0.04813591     0.15400
H2003       H  0.65313121  0.74534130  0.02707560     0.15100
N2004       N  0.59700986  0.75314225  0.03369115     0.74200
O2005       O  0.58891330  0.60565815  0.08457605    -0.39200
O2006       O  0.60104425  0.60952923  0.99871690    -0.39200
O2007       O  0.58625965  0.76230242  0.07493927    -0.39900
O2008       O  0.61540512  0.77616989  0.99919130    -0.40000
C2009       C  0.60057339  0.88600102  0.06857415    -0.12200
C2010       C  0.62769906  0.88995072  0.03318754     0.04800
C2011       C  0.62065642  0.86230837  0.99611312    -0.07500
C2012       C  0.58810912  0.83041992  0.99866986    -0.08300
C2013       C  0.56205013  0.82546103  0.03699830    -0.02800
C2014       C  0.56805644  0.85442071  0.07062816     0.04000
N2015       N  0.54209351  0.85192992  0.10875473     0.66500
H2016       H  0.60505636  0.90706294  0.09673133     0.15400
H2017       H  0.58310649  0.80936431  0.97027556     0.15100
N2018       N  0.64583511  0.86639936  0.95512387     0.74200
O2019       O  0.54383081  0.84420202  0.15696805    -0.39200
O2020       O  0.52129801  0.86311670  0.09648449    -0.39200
O2021       O  0.65243127  0.84169365  0.94535107    -0.39900
O2022       O  0.65812685  0.89275435  0.92421725    -0.40000
C2023       C  0.76691346  0.62709061  0.30015496    -0.12200
C2024       C  0.78078053  0.65180137  0.34333561     0.04800
C2025       C  0.78879545  0.68709173  0.33345007    -0.07500
C2026       C  0.78671074  0.69728458  0.28068681    -0.08300
C2027       C  0.77497118  0.67266266  0.23797082    -0.02800
C2028       C  0.76396843  0.63708813  0.24828144     0.04000
N2029       N  0.75017084  0.61082025  0.20617096     0.66500
H2030       H  0.76005521  0.59985298  0.30500644     0.15400
H2031       H  0.79237821  0.72415909  0.27344970     0.15100
N2032       N  0.79840091  0.71255559  0.37641466     0.74200
O2033       O  0.76681070  0.61610964  0.16225488    -0.39200
O2034       O  0.72271498  0.58124984  0.21420152    -0.39200
O2035       O  0.82186582  0.74448822  0.36920070    -0.39900
O2036       O  0.78155018  0.70378818  0.42037601    -0.40000
C2037       C  0.74885647  0.52837723  0.28280032    -0.12200
C2038       C  0.77336575  0.54177880  0.23979257     0.04800
C2039       C  0.80932165  0.56461027  0.25155738    -0.07500
C2040       C  0.81945147  0.57532687  0.30451835    -0.08300
C2041       C  0.79450194  0.56585280  0.34687955    -0.02800
C2042       C  0.75917283  0.53942368  0.33615358     0.04000
N2043       N  0.73357903  0.52406760  0.37875054     0.66500
H2044       H  0.72152199  0.50854147  0.27520590     0.15400
H2045       H  0.84699108  0.59400636  0.31066182     0.15100
N2046       N  0.83590278  0.57857110  0.21020864     0.74200
O2047       O  0.70169555  0.51583304  0.37129827    -0.39200
O2048       O  0.74226142  0.51639101  0.42275520    -0.39200
O2049       O  0.83452931  0.59816306  0.17435925    -0.39900
O2050       O  0.86335557  0.57580786  0.21411796    -0.40000
C2051       C  0.91240989  0.65662050  0.27582812    -0.12200
C2052       C  0.90138907  0.67239217  0.23729493     0.04800
C2053       C  0.88183899  0.68855796  0.25413511    -0.07500
C2054       C  0.87090236  0.68573428  0.30756668    -0.08300
C2055       C  0.87834451  0.66649269  0.34588667    -0.02800
C2056       C  0.90252348  0.65496075  0.33029440     0.04000
N2057       N  0.91773942  0.64226076  0.36908759     0.66500
H2058       H  0.93092474  0.64785088  0.26411859     0.15400
H2059       H  0.85454481  0.69718397  0.31719919     0.15100
N2060       N  0.87295076  0.70814708  0.21733973     0.74200
O2061       O  0.92570874  0.61889673  0.35604009    -0.39200
O2062       O  0.92573902  0.65628975  0.41532944    -0.39200
O2063       O  0.86042733  0.69534622  0.17161962    -0.39900
O2064       O  0.87575896  0.73742874  0.23160646    -0.40000
C2065       C  0.95039521  0.52906049  0.35254316    -0.12200
C2066       C  0.95617028  0.55619744  0.38943272     0.04800
C2067       C  0.92779927  0.55094010  0.42394534    -0.07500
C2068       C  0.89399234  0.02300740  0.40941868    -0.08300
C2069       C  0.88979657  0.99359504  0.37925872    -0.02800
C2070       C  0.91780987  0.49719105  0.35029993     0.04000
N2071       N  0.91559638  0.46874596  0.31808344     0.65600
H2072       H  0.97181943  0.53188838  0.32662253     0.15400
H2073       H  0.87200170  0.02096165  0.43312212     0.15100
N2074       N  0.93277432  0.57538673  0.46661825     0.74200
O2075       O  0.91279771  0.46928783  0.26769360    -0.39200
O2076       O  0.92994642  0.95031371  0.33833469    -0.39200
O2077       O  0.48714360  0.50730819  0.30951021    -0.39900
O2078       O  0.93181732  0.08376164  0.49272383    -0.40000
C2079       C  0.94757536  0.86710930  0.32573297    -0.12200
C2080       C  0.95602241  0.85341451  0.37064296     0.04800
C2081       C  0.93068962  0.83778703  0.41227812    -0.07500
C2082       C  0.89841557  0.83722594  0.40922850    -0.08300
C2083       C  0.89022221  0.85161958  0.36523016    -0.02800
C2084       C  0.91454055  0.86560353  0.32195207     0.04000
N2085       N  0.90547531  0.87672500  0.27333942     0.66500
H2086       H  0.96646411  0.87830968  0.29297643     0.15400
H2087       H  0.88014243  0.82664997  0.44288102     0.15100
N2088       N  0.93822880  0.82477797  0.46004391     0.74200
O2089       O  0.92899073  0.90247714  0.24703133    -0.39200
O2090       O  0.87533534  0.85769955  0.25254631    -0.39200
O2091       O  0.94147300  0.84080605  0.50413557    -0.39900
O2092       O  0.93344576  0.79366137  0.46041041    -0.40000
C2093       C  0.62550218  0.52260036  0.40469367    -0.12200
C2094       C  0.60309035  0.99628332  0.37333895     0.04800
C2095       C  0.58490212  0.00444081  0.33429237    -0.07500
C2096       C  0.58390827  0.53605479  0.33476758    -0.08300
C2097       C  0.60452733  0.56188025  0.37359882    -0.02800
C2098       C  0.62671583  0.55534342  0.40706772     0.04000
N2099       N  0.65016292  0.58142050  0.44475176     0.66500
H2100       H  0.64171939  0.51785650  0.43249506     0.15400
H2101       H  0.56686672  0.54053973  0.30837535     0.15100
N2102       N  0.56326062  0.97876717  0.29482807     0.74200
O2103       O  0.64432726  0.57626077  0.49457285    -0.39200
O2104       O  0.67921978  0.60685422  0.42861349    -0.39200
O2105       O  0.52998039  0.96265350  0.29973810    -0.39900
O2106       O  0.57717489  0.97479252  0.25244436    -0.40000
C2107       C  0.63655871  0.77286448  0.62071139    -0.12200
C2108       C  0.62527676  0.75476614  0.67011396     0.04800
C2109       C  0.60712165  0.71757741  0.67016638    -0.07500
C2110       C  0.59905702  0.69914981  0.62088682    -0.08300
C2111       C  0.60912168  0.71747868  0.57170667    -0.02800
C2112       C  0.62862204  0.75452688  0.57178089     0.04000
N2113       N  0.63826869  0.77376717  0.52249864     0.66500
H2114       H  0.65101601  0.80156160  0.62016920     0.15400
H2115       H  0.58415714  0.67040716  0.62087385     0.15100
N2116       N  0.59651839  0.69838409  0.71953027     0.74200
O2117       O  0.61602437  0.77919380  0.49839070    -0.39200
O2118       O  0.66764543  0.78227567  0.50040758    -0.39200
O2119       O  0.57617836  0.70240749  0.75181023    -0.39900
O2120       O  0.60826938  0.67803227  0.73163243    -0.40000
C2121       C  0.74470355  0.87397435  0.60811045    -0.12200
C2122       C  0.74058974  0.84470408  0.57809460     0.04800
C2123       C  0.73156055  0.81313642  0.60570481    -0.07500
C2124       C  0.72116855  0.80971558  0.65957995    -0.08300
C2125       C  0.71925563  0.83723492  0.68776646    -0.02800
C2126       C  0.73679038  0.87118846  0.66347021     0.04000
N2127       N  0.74754607  0.90303289  0.69423218     0.66500
H2128       H  0.75648087  0.89971678  0.58917742     0.15400
H2129       H  0.71268801  0.78423189  0.67736960     0.15100
N2130       N  0.73264258  0.78406504  0.57980152     0.74200
O2131       O  0.75776019  0.90528334  0.74221972    -0.39200
O2132       O  0.74894007  0.92976894  0.67246786    -0.39200
O2133       O  0.76101274  0.78280123  0.58085018    -0.39900
O2134       O  0.70401205  0.75621977  0.56872518    -0.40000
C2135       C  0.65421943  0.86840436  0.63522879    -0.12200
C2136       C  0.62965210  0.85287179  0.67763989     0.04800
C2137       C  0.59417672  0.84375170  0.66846912    -0.07500
C2138       C  0.58303589  0.84365179  0.61577159    -0.08300
C2139       C  0.60705340  0.85431508  0.57210900    -0.02800
C2140       C  0.64333365  0.86836258  0.58275351     0.04000
N2141       N  0.66936383  0.88073318  0.54064589     0.66500
H2142       H  0.68174964  0.87684653  0.64079655     0.15400
H2143       H  0.55544370  0.83561139  0.60920129     0.15100
N2144       N  0.56916262  0.83318369  0.71203312     0.74200
O2145       O  0.69526826  0.91195844  0.54248344    -0.39200
O2146       O  0.66957493  0.85900060  0.50668906    -0.39200
O2147       O  0.57769201  0.85066433  0.75557439    -0.39900
O2148       O  0.53772974  0.80827060  0.70575257    -0.40000
C2149       C  0.76181303  0.70887597  0.75781827    -0.12200
C2150       C  0.78447241  0.71959083  0.71272078     0.04800
C2151       C  0.77325943  0.69717188  0.66632930    -0.07500
C2152       C  0.74197781  0.66364692  0.66870622    -0.08300
C2153       C  0.72022390  0.65286144  0.71477974    -0.02800
C2154       C  0.73007972  0.67652099  0.75903704     0.04000
N2155       N  0.70946955  0.66720708  0.80743930     0.66500
H2156       H  0.76903330  0.72544890  0.79362489     0.15400
H2157       H  0.73404406  0.64626039  0.63378586     0.15100
N2158       N  0.79242732  0.70800950  0.61638379     0.74200
O2159       O  0.72250101  0.66310211  0.85003410    -0.39200
O2160       O  0.68293067  0.67163508  0.81056403    -0.39200
O2161       O  0.79485612  0.68546003  0.58683346    -0.39900
O2162       O  0.79979290  0.73748966  0.59648572    -0.40000
C2163       C  0.89492339  0.65092809  0.67738052    -0.12200
C2164       C  0.92358818  0.64905410  0.69929241     0.04800
C2165       C  0.95325073  0.68074052  0.71775744    -0.07500
C2166       C  0.95262656  0.71267964  0.71720740    -0.08300
C2167       C  0.92314597  0.71415644  0.69769031    -0.02800
C2168       C  0.89451955  0.68288101  0.67596236     0.04000
N2169       N  0.86426999  0.68269805  0.65358969     0.66500
H2170       H  0.87207028  0.62720848  0.66221364     0.15400
H2171       H  0.97511181  0.73628896  0.73350009     0.15100
N2172       N  0.98399611  0.68100069  0.73814432     0.74200
O2173       O  0.86607600  0.69458355  0.60691910    -0.39200
O2174       O  0.83474693  0.66682520  0.67752158    -0.39200
O2175       O  0.00874402  0.68570045  0.70636423    -0.39900
O2176       O  0.98877026  0.68199162  0.78826210    -0.40000
C2177       C  0.75438484  0.48652952  0.74953497    -0.12200
C2178       C  0.78030319  0.50614305  0.71052592     0.04800
C2179       C  0.77173576  0.52348659  0.67047495    -0.07500
C2180       C  0.73901202  0.52301286  0.67279011    -0.08300
C2181       C  0.71389523  0.50466115  0.71353462    -0.02800
C2182       C  0.72143625  0.48491368  0.75066808     0.04000
N2183       N  0.69597058  0.46305366  0.79017118     0.66500
H2184       H  0.75968873  0.47212272  0.77991040     0.15400
H2185       H  0.73378206  0.53808578  0.64351901     0.15100
N2186       N  0.79648132  0.54316666  0.62889592     0.74200
O2187       O  0.67368684  0.93495765  0.79005815    -0.39200
O2188       O  0.70300514  0.46928189  0.83959278    -0.39200
O2189       O  0.80151559  0.52685228  0.59053461    -0.39900
O2190       O  0.80803818  0.57605309  0.62518132    -0.40000
C2191       C  0.97019010  0.89130081  0.98948023    -0.12200
C2192       C  0.94171474  0.89112996  0.01793924     0.04800
C2193       C  0.90806375  0.87307941  0.99283134    -0.07500
C2194       C  0.90573159  0.86578354  0.93735067    -0.08300
C2195       C  0.93545783  0.87104065  0.90762260    -0.02800
C2196       C  0.96731724  0.88146449  0.93529700     0.04000
N2197       N  0.99714003  0.88214215  0.90911242     0.66500
H2198       H  0.49590256  0.90063170  0.00033194     0.15400
H2199       H  0.87993363  0.85290359  0.91833567     0.15100
N2200       N  0.87603227  0.85954146  0.02363362     0.74200
O2201       O  0.51236821  0.90689898  0.86481981    -0.39200
O2202       O  0.00858464  0.86232013  0.92543850    -0.39200
O2203       O  0.84877069  0.85798421  0.00348195    -0.39900
O2204       O  0.87362259  0.84476848  0.06806456    -0.40000
C2205       C  0.57388913  0.00201666  0.95255391    -0.12200
C2206       C  0.55691047  0.49956054  0.90495362     0.04800
C2207       C  0.52022899  0.47665348  0.90568692    -0.07500
C2208       C  0.50267923  0.46581236  0.95500857    -0.08300
C2209       C  0.51928632  0.98201166  0.00278236    -0.02800
C2210       C  0.55584423  0.99417394  0.00208547     0.04000
N2211       N  0.57486126  0.99902345  0.05099941     0.66500
H2212       H  0.60230506  0.01245712  0.95213391     0.15400
H2213       H  0.47412080  0.44925433  0.95496939     0.15100
N2214       N  0.50020201  0.46691665  0.85699780     0.74200
O2215       O  0.59190759  0.98287919  0.05787520    -0.39200
O2216       O  0.57498798  0.01970935  0.08721249    -0.39200
O2217       O  0.48679326  0.43569502  0.83876300    -0.39900
O2218       O  0.49434042  0.48909616  0.83364298    -0.40000
C2219       C  0.90703615  0.95511758  0.97148042    -0.12200
C2220       C  0.92425979  0.97974031  0.01352515     0.04800
C2221       C  0.93125523  0.50867266  0.00380267    -0.07500
C2222       C  0.93166304  0.52053311  0.95144175    -0.08300
C2223       C  0.92087049  0.49709480  0.90694834    -0.02800
C2224       C  0.90726057  0.96596955  0.91895526     0.04000
N2225       N  0.89197724  0.93940636  0.87765262     0.66500
H2226       H  0.89667355  0.92718088  0.97719195     0.15400
H2227       H  0.93989637  0.54824976  0.94574887     0.15100
N2228       N  0.45294212  0.53988566  0.04109877     0.74200
O2229       O  0.91180028  0.93539495  0.84429396    -0.39200
O2230       O  0.85945701  0.91655311  0.87969478    -0.39200
O2231       O  0.47802744  0.57094822  0.03279619    -0.39900
O2232       O  0.43861112  0.53204231  0.08704144    -0.40000
loop_ 
_geom_bond_atom_site_label_1 
_geom_bond_atom_site_label_2 
_geom_bond_distance 
_geom_bond_site_symmetry_2 
_ccdc_geom_bond_type 
C1            C2   1.417       .  A
C1            C6   1.403       .  A
C1         C1155   1.485   1_455  S
C2            C3   1.412       .  A
C2            H7   1.083       .  S
C3            C4   1.411       .  A
C3           C89   1.501       .  S
C4            C5   1.411       .  A
C4            H8   1.083       .  S
C5            C6   1.398       .  A
C5          C157   1.484       .  S
C6            H9   1.084   1_455  S
C10          C11   1.404       .  A
C10          C15   1.419       .  A
C10        C1183   1.492   1_455  S
C11          C12   1.401       .  A
C11          H16   1.083   1_455  S
C12          C13   1.401       .  A
C12         C135   1.469       .  S
C13          C14   1.398       .  A
C13          H17   1.085       .  S
C14          C15   1.415       .  A
C14          C83   1.486       .  S
C15          H18   1.083       .  S
C19          C20   1.412       .  A
C19         C582   1.406       .  A
C19         C546   1.501       .  S
C20          C21   1.417       .  A
C20          H25   1.077       .  S
C21          C22   1.412       .  A
C21         C518   1.521       .  S
C22        C1139   1.396       .  A
C22        H1142   1.079       .  S
C23        C1138   1.398       .  A
C23        C1698   1.396       .  A
C23         C535   1.485   1_655  S
C24         C577   1.410       .  A
C24        C1697   1.396       .  A
C24        H1143   1.082   1_565  S
H26        C1138   1.081   1_455  S
H27        C1140   1.083   1_545  S
O28         Cr46   2.030       .  S
O28          C36   1.269       .  A
O29         Cr46   1.987       .  S
O29          C30   1.256       .  A
C30         C490   1.482       .  S
C30          O31   1.258       .  A
O31         Cr47   1.999       .  S
O32         Cr47   1.973       .  S
O32          C33   1.266       .  A
C33         C207   1.467       .  S
C33          O34   1.271       .  A
O34         Cr48   1.995   1_545  S
O35         Cr48   1.956   1_545  S
O35          C36   1.255       .  A
C36         C504   1.501       .  S
O37         Cr46   1.976   1_565  S
O37         C603   1.262       .  A
O38         Cr46   2.030       .  S
O38          C39   1.278       .  A
C39        C1117   1.487       .  S
C39          O40   1.263       .  A
O40         Cr47   1.972       .  S
O41         Cr47   1.989       .  S
O41          C42   1.255       .  A
C42         C549   1.482   1_545  S
C42          O43   1.251   1_545  A
O43         Cr48   1.964       .  S
O44        Cr606   2.012       .  S
O44          C45   1.265       .  A
C45          C98   1.483       .  S
C45         O595   1.260       .  A
Cr46         O49   1.777       .  S
Cr47         O49   1.785       .  S
Cr48        O602   2.000       .  S
Cr48         O49   1.773   1_565  S
O50         Cr68   1.985       .  S
O50          C58   1.254       .  A
O51         Cr68   2.003       .  S
O51          C52   1.261       .  A
C52         C476   1.500       .  S
C52          O53   1.259       .  A
O53         Cr69   1.972       .  S
O54         Cr69   1.992       .  S
O54          C55   1.270       .  A
C55         C218   1.486       .  S
C55          O56   1.276       .  A
O56         Cr70   2.004       .  S
O57         Cr70   1.991       .  S
O57          C58   1.255       .  A
C58         C493   1.478       .  S
O59         Cr68   2.021       .  S
O59          C67   1.274       .  A
O60         Cr68   1.977       .  S
O60          C61   1.261       .  A
C61          C94   1.485       .  S
C61          O62   1.266       .  A
O62         Cr69   2.007       .  S
O63         Cr69   1.986       .  S
O63          C64   1.259       .  A
C64         C521   1.474       .  S
C64          O65   1.246       .  A
O65         Cr70   1.952       .  S
O66         Cr70   1.984       .  S
O66          C67   1.265       .  A
C67        C1126   1.491       .  S
Cr68         O71   1.789       .  S
Cr69         O71   1.785       .  S
Cr70         O71   1.790       .  S
O72         Cr90   2.001       .  S
O72          C80   1.260       .  A
O73         Cr90   2.016       .  S
O73          C74   1.265       .  A
C74         C507   1.501       .  S
C74          O75   1.258       .  A
O75         Cr91   1.973       .  S
O76         Cr91   1.996       .  S
O76          C77   1.268       .  A
C77         C300   1.481       .  S
C77          O78   1.272       .  A
O78         Cr92   1.994       .  S
O79         Cr92   1.997       .  S
O79          C80   1.258       .  A
C80         C479   1.492       .  S
O81         Cr90   2.025       .  S
O81          C89   1.274       .  A
O82         Cr90   1.988   1_565  S
O82         C641   1.264       .  A
C83          O84   1.263       .  A
C83         O640   1.265       .  A
O84        Cr649   1.998       .  S
O85         Cr91   1.985   1_565  S
O85          C86   1.256   1_565  A
C86         C532   1.465       .  S
C86          O87   1.252       .  A
O87         Cr92   1.981       .  S
O88         Cr92   2.003       .  S
O88          C89   1.270       .  A
Cr90         O93   1.785       .  S
Cr91        O642   1.997   1_545  S
Cr91         O93   1.782       .  S
Cr92         O93   1.784       .  S
C94          C95   1.411       .  A
C94          C99   1.416       .  A
C95          C96   1.402       .  A
C95         H100   1.084       .  S
C96          C97   1.402       .  A
C96         C179   1.479       .  S
C97          C98   1.398       .  A
C97         H101   1.085       .  S
C98          C99   1.410       .  A
C99         H102   1.083       .  S
C103        C104   1.410       .  A
C103        C108   1.403       .  A
C103        C191   1.486       .  S
C104        C105   1.415       .  A
C104        H109   1.084       .  S
C105        C106   1.405       .  A
C105        C141   1.478       .  S
C106        C107   1.400       .  A
C106        H110   1.084       .  S
C107        C108   1.403       .  A
C107        C259   1.476       .  S
C108        H111   1.085       .  S
C112        C117   1.411       .  A
C112       C1229   1.412       .  A
C112        C163   1.501       .  S
C113        C114   1.411       .  A
C113       C1228   1.410       .  A
C113        H118   1.083       .  S
C114        C115   1.397       .  A
C114       C1353   1.486       .  S
C115       C1232   1.406       .  A
C115        H119   1.083       .  S
C116        C117   1.416       .  A
C116       C1231   1.407       .  A
C116        C147   1.486       .  S
C117        H120   1.083       .  S
C121        C122   1.399       .  A
C121        C126   1.407       .  A
C121        C462   1.489       .  S
C122        C123   1.394       .  A
C122        H127   1.085       .  S
C123        C124   1.397       .  A
C123        C434   1.479       .  S
C124        C125   1.415       .  A
C124        H128   1.078       .  S
C125        C126   1.417       .  A
C125        C451   1.523       .  S
C126        H129   1.075       .  S
O130       Cr148   1.990       .  S
O130       C1254   1.257   1_455  A
O131       Cr148   2.013       .  S
O131        C132   1.265       .  A
C132        C420   1.483       .  S
C132        O133   1.256       .  A
O133       Cr149   1.959       .  S
O134       Cr149   1.996       .  S
O134        C135   1.269       .  A
C135        O136   1.267       .  A
O136       Cr150   1.977       .  S
O137      Cr1266   1.993       .  S
O137        C138   1.257       .  A
C138        C406   1.484       .  S
C138       O1246   1.257       .  A
O139       Cr148   2.021       .  S
O139        C147   1.275       .  A
O140       Cr148   1.981       .  S
O140        C141   1.262       .  A
C141        O142   1.263       .  A
O142       Cr149   1.999       .  S
O143       Cr149   1.968       .  S
O143        C144   1.254       .  A
C144        C465   1.474       .  S
C144        O145   1.253       .  A
O145       Cr150   1.983       .  S
O146       Cr150   1.976       .  S
O146        C147   1.263       .  A
Cr148       O151   1.777       .  S
Cr149       O151   1.774       .  S
Cr150      O1253   1.996   1_455  S
Cr150       O151   1.784       .  S
O152       Cr170   2.007       .  S
O152        C160   1.263       .  A
O153       Cr170   2.001       .  S
O153       C1270   1.262   1_455  A
C154        C392   1.501       .  S
C154        O155   1.259       .  A
C154       O1269   1.259       .  A
O155      Cr1287   2.001       .  S
O156       Cr171   1.995       .  S
O156        C157   1.273       .  A
C157        O158   1.267       .  A
O158       Cr172   1.998       .  S
O159       Cr172   1.972       .  S
O159        C160   1.258       .  A
C160        C423   1.487       .  S
O161       Cr170   1.991       .  S
O161        C169   1.264       .  A
O162       Cr170   2.015       .  S
O162        C163   1.271       .  A
C163        O164   1.270       .  A
O164       Cr171   2.008       .  S
O165       Cr171   1.986       .  S
O165        C166   1.254       .  A
C166        C437   1.471       .  S
C166        O167   1.256       .  A
O167       Cr172   1.976       .  S
O168       Cr172   1.996       .  S
O168        C169   1.263       .  A
C169        C200   1.481       .  S
Cr170       O173   1.783       .  S
Cr171      O1271   2.006   1_455  S
Cr171       O173   1.785       .  S
Cr172       O173   1.783       .  S
O174       Cr192   2.005       .  S
O174        C182   1.262       .  A
O175       Cr192   1.983       .  S
O175        C176   1.252       .  A
C176        C409   1.483       .  S
C176        O177   1.256       .  A
O177       Cr193   1.995       .  S
O178       Cr193   1.997       .  S
O178        C179   1.274       .  A
C179        O180   1.270       .  A
O180       Cr194   1.984       .  S
O181       Cr194   1.976       .  S
O181        C182   1.256       .  A
C182        C395   1.495       .  S
O183       Cr192   1.973       .  S
O183        C191   1.262       .  A
O184       Cr192   2.025       .  S
O184        C185   1.277       .  A
C185        C196   1.492       .  S
C185        O186   1.265       .  A
O186       Cr193   1.986       .  S
O187       Cr193   1.958       .  S
O187        C188   1.246       .  A
C188        C448   1.483       .  S
C188        O189   1.260       .  A
O189       Cr194   1.984       .  S
O190       Cr194   2.015       .  S
O190        C191   1.268       .  A
Cr192       O195   1.782       .  S
Cr193       O195   1.793       .  S
Cr194       O195   1.784       .  S
C196        C197   1.401       .  A
C196        C201   1.413       .  A
C197        C198   1.402       .  A
C197        H202   1.083       .  S
C198        C199   1.401       .  A
C198        C281   1.476       .  S
C199        C200   1.403       .  A
C199        H203   1.082       .  S
C200        C201   1.415       .  A
C201        H204   1.084       .  S
C205        C206   1.402       .  A
C205        C210   1.414   1_556  A
C205        C243   1.478   1_556  S
C206        C207   1.400       .  A
C206        H211   1.082       .  S
C207        C208   1.397       .  A
C208        C209   1.396       .  A
C208        H212   1.085       .  S
C209        C210   1.412   1_556  A
C209        C829   1.478   1_556  S
C210        H213   1.084       .  S
C214        C215   1.412   1_556  A
C214        C219   1.402       .  A
C214        C287   1.490   1_556  S
C215        C216   1.415   1_554  A
C215        H220   1.083       .  S
C216        C217   1.414       .  A
C216        C249   1.495   1_556  S
C217        C218   1.404       .  A
C217        H221   1.083       .  S
C218        C219   1.408       .  A
C219        H222   1.084       .  S
C223        C224   1.409       .  A
C223        C228   1.406       .  A
C223        C350   1.511       .  S
C224        C225   1.407       .  A
C224        H229   1.080       .  S
C225        C226   1.411       .  A
C225        C381   1.510       .  S
C226        C227   1.406       .  A
C226        H230   1.081       .  S
C227        C228   1.409       .  A
C227        C367   1.505       .  S
C228        H231   1.082       .  S
O232       Cr250   1.984   1_455  S
O232        C240   1.259       .  A
O233       Cr250   2.010   1_455  S
O233        C234   1.263       .  A
C234        C322   1.496       .  S
C234        O235   1.258       .  A
O235      Cr1367   1.971   1_455  S
O236      Cr1367   1.998       .  S
O236        C237   1.268   1_655  A
C237       C1230   1.487       .  S
C237        O238   1.274       .  A
O238      Cr1368   1.999   1_455  S
O239      Cr1368   2.004   1_455  S
O239        C240   1.261       .  A
C240        C339   1.492       .  S
O241      Cr1366   2.011   1_556  S
O241        C249   1.267   1_556  A
O242      Cr1366   1.981   1_556  S
O242        C243   1.264   1_556  A
C243        O244   1.265       .  A
O244       Cr251   2.002       .  S
O245       Cr251   1.986       .  S
O245        C246   1.260       .  A
C246        C378   1.461       .  S
C246        O247   1.250       .  A
O247       Cr252   1.952       .  S
O248       Cr252   1.999       .  S
O248        C249   1.265       .  A
Cr250      O1357   2.016       .  S
Cr250      O1358   1.979   1_554  S
Cr250      O1369   1.782       .  S
Cr251      O1351   1.977       .  S
Cr251      O1352   1.981       .  S
Cr251       O253   1.789       .  S
Cr252      O1354   2.003       .  S
Cr252      O1355   1.993       .  S
Cr252       O253   1.783       .  S
O253      Cr1366   1.788       .  S
O254       Cr272   2.019       .  S
O254        C262   1.265       .  A
O255       Cr272   1.988       .  S
O255        C256   1.255       .  A
C256        C336   1.493       .  S
C256        O257   1.258       .  A
O257       Cr273   2.001       .  S
O258       Cr273   1.986       .  S
O258        C259   1.271       .  A
C259        O260   1.272       .  A
O260       Cr274   2.000       .  S
O261       Cr274   1.963       .  S
O261        C262   1.257       .  A
C262        C308   1.504       .  S
O263       Cr272   1.977   1_556  S
O263        C271   1.263   1_556  A
O264       Cr272   2.033   1_556  S
O264        C265   1.277   1_556  A
C265        C860   1.494   1_554  S
C265        O266   1.266       .  A
O266       Cr273   1.984       .  S
O267       Cr831   1.990   1_545  S
O267        C268   1.254       .  A
C268        C364   1.479       .  S
C268        O269   1.253       .  A
O269       Cr832   1.966   1_545  S
O270       Cr274   2.003       .  S
O270        C271   1.264       .  A
C271        C767   1.483   1_554  S
Cr272       O275   1.779       .  S
Cr273       O825   1.979       .  S
Cr273       O275   1.788       .  S
Cr274       O827   1.973       .  S
Cr274       O275   1.779       .  S
O276       Cr294   2.007       .  S
O276        C284   1.260       .  A
O277       Cr294   2.019       .  S
O277        C278   1.266       .  A
C278        C311   1.503       .  S
C278        O279   1.255       .  A
O279       Cr295   1.967       .  S
O280       Cr295   1.995       .  S
O280        C281   1.271       .  A
C281        O282   1.269       .  A
O282       Cr296   1.984       .  S
O283       Cr296   1.993       .  S
O283        C284   1.256       .  A
C284        C325   1.494       .  S
O285       Cr294   2.027       .  S
O285        C293   1.277       .  A
O286       Cr294   1.990   1_556  S
O286        C287   1.265   1_556  A
C287        O288   1.266       .  A
O288       Cr295   2.005       .  S
O289       Cr295   1.979       .  S
O289        C290   1.255       .  A
C290        C353   1.463       .  S
C290        O291   1.251       .  A
O291       Cr296   1.974       .  S
O292       Cr296   1.982       .  S
O292        C293   1.265       .  A
C293        C298   1.490   1_554  S
Cr294       O297   1.784       .  S
Cr295       O297   1.782       .  S
Cr296       O297   1.785       .  S
C298        C299   1.405       .  A
C298        C303   1.415   1_556  A
C299        C300   1.400       .  A
C299        H304   1.082       .  S
C300        C301   1.408       .  A
C301        C302   1.406       .  A
C301        H305   1.084       .  S
C302        C303   1.414   1_556  A
C302        C823   1.496   1_556  S
C303        H306   1.083       .  S
C307        C308   1.406       .  A
C307        C312   1.396       .  A
C307        H314   1.084       .  S
C308        C309   1.420   1_554  A
C309        C310   1.417   1_556  A
C309        N316   1.434       .  S
C310        C311   1.411       .  A
C310        H315   1.083   1_554  S
C311        C312   1.418       .  A
C312        N313   1.431       .  S
N313        O317   1.262       .  A
N313        O318   1.261       .  A
N316        O320   1.262       .  A
N316        O319   1.263       .  A
C321        C322   1.404       .  A
C321        C326   1.398       .  A
C321        H328   1.084       .  S
C322        C323   1.419       .  A
C323        C324   1.412       .  A
C323        N330   1.432   1_554  S
C324        C325   1.406       .  A
C324        H329   1.084   1_554  S
C325        C326   1.415       .  A
C326        N327   1.429       .  S
N327        O331   1.261       .  A
N327        O332   1.262       .  A
N330        O334   1.262       .  A
N330        O333   1.262       .  A
C335        C336   1.407       .  A
C335        C340   1.402       .  A
C335        H342   1.084       .  S
C336        C337   1.414       .  A
C337        C338   1.402       .  A
C337        N344   1.428   1_554  S
C338        C339   1.405       .  A
C338        H343   1.082   1_554  S
C339        C340   1.416       .  A
C340        N341   1.430       .  S
N341        O345   1.262       .  A
N341        O346   1.262       .  A
N344        O348   1.262       .  A
N344        O347   1.262   1_556  A
C349        C350   1.417       .  A
C349        C354   1.394       .  A
C349        H356   1.076       .  S
C350        C351   1.418       .  A
C351        C352   1.408       .  A
C351        N358   1.436       .  S
C352        C353   1.404       .  A
C352        H357   1.084       .  S
C353        C354   1.400       .  A
C354        N355   1.437       .  S
N355        O359   1.262       .  A
N355        O360   1.263       .  A
N358        O362   1.262       .  A
N358        O361   1.263       .  A
C363        C364   1.411       .  A
C363        C368   1.405       .  A
C363        H370   1.083       .  S
C364        C365   1.405       .  A
C365        C366   1.392       .  A
C365        N372   1.434       .  S
C366        C367   1.414       .  A
C366        H371   1.073       .  S
C367        C368   1.412       .  A
C368        N369   1.435       .  S
N369        O373   1.263       .  A
N369        O374   1.262       .  A
N372        O376   1.262       .  A
N372        O375   1.262       .  A
C377        C378   1.405       .  A
C377        C382   1.409       .  A
C377        H384   1.084       .  S
C378        C379   1.402       .  A
C379        C380   1.390       .  A
C379        N386   1.435       .  S
C380        C381   1.415       .  A
C380        H385   1.075       .  S
C381        C382   1.418       .  A
C382        N383   1.437       .  S
N383        O387   1.262       .  A
N383        O388   1.263       .  A
N386        O390   1.263       .  A
N386        O389   1.262       .  A
C391        C392   1.409       .  A
C391        C396   1.404       .  A
C391        H398   1.083       .  S
C392        C393   1.416       .  A
C393        C952   1.409   1_545  A
C393        N400   1.429       .  S
C394        C395   1.408       .  A
C394        C951   1.410       .  A
C394        H399   1.083       .  S
C395        C954   1.414       .  A
C396        C953   1.412   1_545  A
C396        N397   1.431       .  S
N397        O401   1.262       .  A
N397        O960   1.262       .  A
N400        O962   1.262       .  A
N400       O1519   1.262       .  A
O402        N955   1.262       .  A
O403       N1516   1.262       .  A
O404        N958   1.262       .  A
C405        C406   1.405       .  A
C405        C410   1.403       .  A
C405        H412   1.083       .  S
C406        C407   1.415       .  A
C407        C408   1.396       .  A
C407        N414   1.430       .  S
C408        C409   1.403       .  A
C408        H413   1.084       .  S
C409        C410   1.414       .  A
C410        N411   1.431       .  S
N411        O415   1.262       .  A
N411        O416   1.262       .  A
N414        O418   1.262       .  A
N414        O417   1.262       .  A
C419        C424   1.398       .  A
C419        C978   1.404   1_545  A
C419        H426   1.084       .  S
C420        C421   1.412       .  A
C420        C977   1.404       .  A
C421        C980   1.407       .  A
C421        N428   1.430       .  S
C422        C423   1.408       .  A
C422        C979   1.408       .  A
C422        H427   1.084       .  S
C423        C424   1.412       .  A
C424        N425   1.430       .  S
N425        O429   1.262       .  A
N425        O430   1.262       .  A
N428        O432   1.262       .  A
N428        O431   1.262       .  A
C433        C434   1.411       .  A
C433        C438   1.397       .  A
C433        H440   1.082       .  S
C434        C435   1.401       .  A
C435        C436   1.401       .  A
C435        N442   1.429       .  S
C436        C437   1.411       .  A
C436        H441   1.084       .  S
C437        C438   1.403       .  A
C438        N439   1.433       .  S
N439        O443   1.262       .  A
N439        O444   1.261       .  A
N442        O446   1.262       .  A
N442        O445   1.261       .  A
C447        C448   1.400       .  A
C447        C452   1.406       .  A
C447        H454   1.083       .  S
C448        C449   1.421       .  A
C449        C450   1.398       .  A
C449        N456   1.430       .  S
C450        C451   1.408       .  A
C450        H455   1.081       .  S
C451        C452   1.417       .  A
C452        N453   1.430       .  S
N453        O457   1.262       .  A
N453        O458   1.263       .  A
N456        O460   1.262       .  A
N456        O459   1.262       .  A
C461        C462   1.409       .  A
C461        C466   1.390       .  A
C461        H468   1.050       .  S
C462        C463   1.408       .  A
C463        C464   1.402       .  A
C463        N470   1.432       .  S
C464        C465   1.413       .  A
C464        H469   1.082       .  S
C465        C466   1.402       .  A
C466        N467   1.431       .  S
N467        O471   1.262       .  A
N467        O472   1.262       .  A
N470        O474   1.262       .  A
N470        O473   1.262       .  A
C475        C476   1.407       .  A
C475        C480   1.398       .  A
C475        H482   1.084       .  S
C476        C477   1.421       .  A
C477        C478   1.413       .  A
C477        N484   1.433       .  S
C478        C479   1.406       .  A
C478        H483   1.084       .  S
C479        C480   1.413       .  A
C480        N481   1.429       .  S
N481        O485   1.261       .  A
N481        O486   1.262       .  A
N484        O488   1.262       .  A
N484        O487   1.262       .  A
C489        C490   1.407       .  A
C489        C494   1.409       .  A
C489        H496   1.084       .  S
C490        C491   1.413       .  A
C491        C492   1.396       .  A
C491        N498   1.430       .  S
C492        C493   1.400       .  A
C492        H497   1.084       .  S
C493        C494   1.413       .  A
C494        N495   1.435       .  S
N495        O499   1.263       .  A
N495        O500   1.262       .  A
N498        O502   1.262       .  A
N498        O501   1.262       .  A
C503        C504   1.408   1_565  A
C503        C508   1.397       .  A
C503        H510   1.084       .  S
C504        C505   1.415       .  A
C505        C506   1.414       .  A
C505        N512   1.428       .  S
C506        C507   1.412       .  A
C506        H511   1.083       .  S
C507        C508   1.415   1_545  A
C508        N509   1.431       .  S
N509       O1071   1.262       .  A
N509        O514   1.262       .  A
N512        O516   1.262       .  A
N512        O515   1.262       .  A
O513       N1067   1.262       .  A
C517        C518   1.413   1_556  A
C517        C522   1.394       .  A
C517       H1640   1.078   1_556  S
C518        C519   1.418   1_554  A
C519        C520   1.404       .  A
C519        N526   1.431   1_556  S
C520        C521   1.399       .  A
C520        H525   1.084       .  S
C521        C522   1.413       .  A
C522        N523   1.431       .  S
N523       O1643   1.261       .  A
N523        O528   1.262       .  A
H524       C1633   1.078   1_554  S
N526        O530   1.262       .  A
N526        O529   1.262   1_554  A
O527       N1639   1.261   1_455  A
C531        C536   1.405   1_556  A
C531       C1090   1.411       .  A
C531        H538   1.084       .  S
C532        C533   1.398   1_545  A
C532       C1089   1.411       .  A
C533        C534   1.393       .  A
C533        N540   1.430       .  S
C534       C1093   1.413   1_556  A
C534        H539   1.081   1_455  S
C535        C536   1.403       .  A
C535       C1092   1.413   1_554  A
C536        N537   1.431       .  S
N537        O541   1.262       .  A
N537        O542   1.262       .  A
N540        O544   1.262   1_465  A
N540        O543   1.261   1_455  A
C545        C546   1.410   1_556  A
C545        C550   1.392       .  A
C545        H552   1.074       .  S
C546       C1105   1.414   1_554  A
C547        C548   1.401   1_554  A
C547       C1104   1.412   1_545  A
C547       N1670   1.437       .  S
C548        C549   1.411   1_545  A
C548        H553   1.083       .  S
C549       C1108   1.410       .  A
C550       C1107   1.409       .  A
C550        N551   1.432       .  S
N551        O555   1.262       .  A
N551        O556   1.262       .  A
N554       C1663   1.437       .  S
N554        O558   1.262       .  A
N554        O557   1.263       .  A
C559        C560   1.414       .  A
C559        C564   1.403       .  A
C559       C1713   1.484   1_455  S
C560        C561   1.410       .  A
C560        H565   1.083       .  S
C561        C562   1.409       .  A
C561        C647   1.494       .  S
C562        C563   1.408       .  A
C562        H566   1.083       .  S
C563        C564   1.399       .  A
C563        C715   1.483       .  S
C564        H567   1.082   1_455  S
C568        C569   1.406       .  A
C568        C573   1.416       .  A
C568       C1741   1.491   1_455  S
C569        C570   1.403       .  A
C569        H574   1.083   1_455  S
C570        C571   1.402       .  A
C570        C693   1.472       .  S
C571        C572   1.399       .  A
C571        H575   1.085       .  S
C572        C573   1.412       .  A
C572        C641   1.484       .  S
C573        H576   1.083       .  S
C577        C578   1.411       .  A
C577       C1104   1.503       .  S
C578        C579   1.416       .  A
C578        H583   1.077       .  S
C579        C580   1.408       .  A
C579       C1076   1.518       .  S
C580       C1697   1.397       .  A
C580       H1700   1.081       .  S
C581       C1696   1.397   1_455  A
C581       C1140   1.396   1_455  A
C581       C1093   1.483       .  S
C582       C1139   1.392       .  A
C582       H1701   1.082       .  S
H584       C1696   1.080   1_455  S
H585       C1698   1.083       .  S
O586       Cr604   2.027       .  S
O586        C594   1.268       .  A
O587       Cr604   1.968       .  S
O587        C588   1.253       .  A
C588       C1048   1.477       .  S
C588        O589   1.261       .  A
O589       Cr605   2.011       .  S
O590       Cr605   1.975       .  S
O590        C591   1.266       .  A
C591        C765   1.468       .  S
C591        O592   1.271       .  A
O592       Cr606   1.998       .  S
O593       Cr606   1.955       .  S
O593        C594   1.255       .  A
C594       C1062   1.497       .  S
O595       Cr604   1.969       .  S
O596       Cr604   2.028       .  S
O596        C597   1.277       .  A
C597       C1675   1.483       .  S
C597        O598   1.261       .  A
O598       Cr605   1.967       .  S
O599       Cr605   1.996       .  S
O599        C600   1.258       .  A
C600       C1107   1.481       .  S
C600        O601   1.252       .  A
O601       Cr606   1.962       .  S
O602        C603   1.263       .  A
C603        C656   1.481       .  S
Cr604       O607   1.771       .  S
Cr605       O607   1.785       .  S
Cr606       O607   1.768       .  S
O608       Cr626   1.970       .  S
O608        C616   1.253       .  A
O609       Cr626   2.015       .  S
O609        C610   1.264       .  A
C610       C1034   1.503       .  S
C610        O611   1.259       .  A
O611       Cr627   1.968       .  S
O612       Cr627   2.001       .  S
O612        C613   1.271       .  A
C613        C776   1.485       .  S
C613        O614   1.273       .  A
O614       Cr628   1.997       .  S
O615       Cr628   1.999       .  S
O615        C616   1.257       .  A
C616       C1051   1.475       .  S
O617       Cr626   2.026       .  S
O617        C625   1.275       .  A
O618       Cr626   1.969       .  S
O618        C619   1.259       .  A
C619        C652   1.482       .  S
C619        O620   1.268       .  A
O620       Cr627   2.016       .  S
O621       Cr627   1.982       .  S
O621        C622   1.259       .  A
C622       C1079   1.465       .  S
C622        O623   1.250       .  A
O623       Cr628   1.958       .  S
O624       Cr628   1.978       .  S
O624        C625   1.261       .  A
C625       C1684   1.490       .  S
Cr626       O629   1.784       .  S
Cr627       O629   1.778       .  S
Cr628       O629   1.790       .  S
O630       Cr648   2.005       .  S
O630        C638   1.260       .  A
O631       Cr648   2.015       .  S
O631        C632   1.265       .  A
C632       C1065   1.497       .  S
C632        O633   1.257       .  A
O633       Cr649   1.965       .  S
O634       Cr649   1.998       .  S
O634        C635   1.268       .  A
C635        C858   1.478       .  S
C635        O636   1.271       .  A
O636       Cr650   1.989       .  S
O637       Cr650   2.000       .  S
O637        C638   1.259       .  A
C638       C1037   1.493       .  S
O639       Cr648   2.019       .  S
O639        C647   1.273       .  A
O640       Cr648   1.990       .  S
C641        O642   1.263       .  A
O643       Cr649   1.979       .  S
O643        C644   1.254       .  A
C644       C1090   1.464       .  S
C644        O645   1.253       .  A
O645       Cr650   1.987       .  S
O646       Cr650   1.997       .  S
O646        C647   1.269       .  A
Cr648       O651   1.785       .  S
Cr649       O651   1.781       .  S
Cr650       O651   1.782       .  S
C652        C653   1.410       .  A
C652        C657   1.413       .  A
C653        C654   1.401       .  A
C653        H658   1.084       .  S
C654        C655   1.402       .  A
C654        C737   1.475       .  S
C655        C656   1.397       .  A
C655        H659   1.085       .  S
C656        C657   1.411       .  A
C657        H660   1.083       .  S
C661        C662   1.411       .  A
C661        C666   1.400       .  A
C661        C749   1.483       .  S
C662        C663   1.414       .  A
C662        H667   1.084       .  S
C663        C664   1.404       .  A
C663        C699   1.478       .  S
C664        C665   1.400       .  A
C664        H668   1.084       .  S
C665        C666   1.401       .  A
C665        C817   1.472       .  S
C666        H669   1.085       .  S
C670       C1787   1.412       .  A
C670        C675   1.411       .  A
C670        C721   1.500       .  S
C671       C1786   1.412       .  A
C671        C672   1.412       .  A
C671        H676   1.083       .  S
C672        C673   1.395       .  A
C672       C1911   1.485       .  S
C673       C1790   1.405       .  A
C673        H677   1.084       .  S
C674       C1789   1.404       .  A
C674        C675   1.416       .  A
C674        C705   1.484       .  S
C675        H678   1.083       .  S
C679        C680   1.407       .  A
C679        C684   1.411       .  A
C679       C1020   1.499       .  S
C680        C681   1.396       .  A
C680        H685   1.083       .  S
C681        C682   1.396       .  A
C681        C992   1.483       .  S
C682        C683   1.411       .  A
C682        H686   1.079       .  S
C683        C684   1.417       .  A
C683       C1009   1.524       .  S
C684        H687   1.075       .  S
O688       Cr706   1.989       .  S
O688       C1812   1.257   1_455  A
O689       Cr706   2.013       .  S
O689        C690   1.265       .  A
C690        C978   1.486       .  S
C690        O691   1.257       .  A
O691       Cr707   1.961       .  S
O692       Cr707   1.998       .  S
O692        C693   1.270       .  A
C693        O694   1.268       .  A
O694       Cr708   1.980       .  S
O695      Cr1824   2.002       .  S
O695        C696   1.259       .  A
C696        C964   1.492       .  S
C696       O1804   1.258       .  A
O697       Cr706   2.021       .  S
O697        C705   1.275       .  A
O698       Cr706   1.978       .  S
O698        C699   1.261       .  A
C699        O700   1.264       .  A
O700       Cr707   2.000       .  S
O701       Cr707   1.970       .  S
O701        C702   1.254       .  A
C702       C1023   1.477       .  S
C702        O703   1.252       .  A
O703       Cr708   1.975       .  S
O704       Cr708   1.972       .  S
O704        C705   1.261       .  A
Cr706       O709   1.778       .  S
Cr707       O709   1.773       .  S
Cr708      O1811   1.993   1_455  S
Cr708       O709   1.785       .  S
O710       Cr728   2.004       .  S
O710        C718   1.262       .  A
O711       Cr728   1.998       .  S
O711       C1828   1.262   1_455  A
C712        C950   1.498       .  S
C712       O1827   1.260       .  A
C712        O713   1.261       .  A
O713      Cr1845   2.003       .  S
O714       Cr729   1.989       .  S
O714        C715   1.270       .  A
C715        O716   1.268       .  A
O716       Cr730   2.001       .  S
O717       Cr730   1.972       .  S
O717        C718   1.257       .  A
C718        C981   1.483       .  S
O719       Cr728   1.987       .  S
O719        C727   1.264       .  A
O720       Cr728   2.014       .  S
O720        C721   1.270       .  A
C721        O722   1.269       .  A
O722       Cr729   2.007       .  S
O723       Cr729   1.987       .  S
O723        C724   1.254       .  A
C724        C995   1.465       .  S
C724        O725   1.255       .  A
O725       Cr730   1.979       .  S
O726       Cr730   1.998       .  S
O726        C727   1.265       .  A
C727        C758   1.479       .  S
Cr728       O731   1.782       .  S
Cr729      O1829   2.008   1_455  S
Cr729       O731   1.782       .  S
Cr730       O731   1.782       .  S
O732       Cr750   2.006       .  S
O732        C740   1.263       .  A
O733       Cr750   1.986       .  S
O733        C734   1.253       .  A
C734        C967   1.493       .  S
C734        O735   1.258       .  A
O735       Cr751   2.003       .  S
O736       Cr751   1.993       .  S
O736        C737   1.272       .  A
C737        O738   1.270       .  A
O738       Cr752   1.983       .  S
O739       Cr752   1.978       .  S
O739        C740   1.257       .  A
C740        C953   1.493       .  S
O741       Cr750   1.977       .  S
O741        C749   1.263       .  A
O742       Cr750   2.026       .  S
O742        C743   1.277       .  A
C743        C754   1.494       .  S
C743        O744   1.264       .  A
O744       Cr751   1.987       .  S
O745       Cr751   1.966       .  S
O745        C746   1.250       .  A
C746       C1006   1.477       .  S
C746        O747   1.259       .  A
O747       Cr752   1.985       .  S
O748       Cr752   2.006       .  S
O748        C749   1.265       .  A
Cr750       O753   1.780       .  S
Cr751       O753   1.791       .  S
Cr752       O753   1.783       .  S
C754        C755   1.401       .  A
C754        C759   1.413       .  A
C755        C756   1.405       .  A
C755        H760   1.083       .  S
C756        C757   1.400       .  A
C756        C839   1.475       .  S
C757        C758   1.403       .  A
C757        H761   1.084       .  S
C758        C759   1.416       .  A
C759        H762   1.084       .  S
C763        C764   1.403       .  A
C763        C768   1.416   1_556  A
C763        C801   1.480   1_556  S
C764        C765   1.401       .  A
C764        H769   1.084       .  S
C765        C766   1.398       .  A
C766        C767   1.397       .  A
C766        H770   1.085       .  S
C767        C768   1.412   1_556  A
C768        H771   1.084       .  S
C772        C773   1.410   1_556  A
C772        C777   1.403       .  A
C772        C845   1.486   1_556  S
C773        C774   1.412   1_554  A
C773        H778   1.083       .  S
C774        C775   1.415       .  A
C774        C807   1.495   1_556  S
C775        C776   1.406       .  A
C775        H779   1.083       .  S
C776        C777   1.405       .  A
C777        H780   1.084       .  S
C781        C782   1.408       .  A
C781        C786   1.410       .  A
C781        C908   1.504       .  S
C782        C783   1.397       .  A
C782        H787   1.082       .  S
C783        C784   1.397       .  A
C783        C939   1.481       .  S
C784        C785   1.406       .  A
C784        H788   1.082       .  S
C785        C786   1.417       .  A
C785        C925   1.516       .  S
C786        H789   1.077       .  S
O790       Cr808   1.989   1_455  S
O790        C798   1.258       .  A
O791       Cr808   1.995   1_455  S
O791        C792   1.260       .  A
C792        C880   1.478       .  S
C792        O793   1.257       .  A
O793      Cr1925   1.974   1_455  S
O794      Cr1925   1.990       .  S
O794        C795   1.265   1_655  A
C795       C1788   1.484       .  S
C795        O796   1.273       .  A
O796      Cr1926   1.997   1_455  S
O797      Cr1926   2.000   1_455  S
O797        C798   1.260       .  A
C798        C897   1.489       .  S
O799      Cr1924   2.011   1_556  S
O799        C807   1.269   1_556  A
O800      Cr1924   1.984   1_556  S
O800        C801   1.261   1_556  A
C801        O802   1.262       .  A
O802       Cr809   1.997       .  S
O803       Cr809   1.984       .  S
O803        C804   1.257       .  A
C804        C936   1.459       .  S
C804        O805   1.251       .  A
O805       Cr810   1.971       .  S
O806       Cr810   2.000       .  S
O806        C807   1.268       .  A
Cr808      O1915   2.009       .  S
Cr808      O1916   1.980   1_554  S
Cr808      O1927   1.788       .  S
Cr809      O1909   1.977       .  S
Cr809      O1910   1.987       .  S
Cr809       O811   1.787       .  S
Cr810      O1912   2.003       .  S
Cr810      O1913   2.001       .  S
Cr810       O811   1.784       .  S
O811      Cr1924   1.785       .  S
O812       Cr830   2.028       .  S
O812        C820   1.268       .  A
O813       Cr830   1.990       .  S
O813        C814   1.256       .  A
C814        C894   1.487       .  S
C814        O815   1.260       .  A
O815       Cr831   2.001       .  S
O816       Cr831   1.983       .  S
O816        C817   1.269       .  A
C817        O818   1.270       .  A
O818       Cr832   1.996       .  S
O819       Cr832   1.960       .  S
O819        C820   1.257       .  A
C820        C866   1.501       .  S
O821       Cr830   1.974   1_546  S
O821        C829   1.262   1_556  A
O822       Cr830   2.038   1_556  S
O822        C823   1.278   1_566  A
C823        O824   1.265       .  A
O824       Cr831   1.983   1_545  S
O825        C826   1.252       .  A
C826        C922   1.484       .  S
C826        O827   1.254       .  A
O828       Cr832   1.999   1_545  S
O828        C829   1.263       .  A
Cr830       O833   1.777       .  S
Cr831       O833   1.785       .  S
Cr832       O833   1.774       .  S
O834       Cr852   2.000       .  S
O834        C842   1.257       .  A
O835       Cr852   2.011       .  S
O835        C836   1.264       .  A
C836        C869   1.503       .  S
C836        O837   1.257       .  A
O837       Cr853   1.975       .  S
O838       Cr853   1.989       .  S
O838        C839   1.271       .  A
C839        O840   1.272       .  A
O840       Cr854   1.991       .  S
O841       Cr854   1.986       .  S
O841        C842   1.251       .  A
C842        C883   1.490       .  S
O843       Cr852   2.027       .  S
O843        C851   1.277       .  A
O844       Cr852   1.986   1_556  S
O844        C845   1.264   1_556  A
C845        O846   1.265       .  A
O846       Cr853   2.000       .  S
O847       Cr853   1.988       .  S
O847        C848   1.257       .  A
C848        C911   1.463       .  S
C848        O849   1.248       .  A
O849       Cr854   1.960       .  S
O850       Cr854   1.979       .  S
O850        C851   1.265       .  A
C851        C856   1.487       .  S
Cr852       O855   1.781       .  S
Cr853       O855   1.780       .  S
Cr854       O855   1.786       .  S
C856        C857   1.404   1_554  A
C856        C861   1.414       .  A
C857        C858   1.399       .  A
C857        H862   1.082       .  S
C858        C859   1.407       .  A
C859        C860   1.406       .  A
C859        H863   1.083       .  S
C860        C861   1.413   1_556  A
C861        H864   1.083       .  S
C865        C866   1.407       .  A
C865        C870   1.398       .  A
C865        H872   1.084       .  S
C866        C867   1.414       .  A
C867        C868   1.413       .  A
C867        N874   1.429   1_554  S
C868        C869   1.411       .  A
C868        H873   1.083   1_554  S
C869        C870   1.418       .  A
C870        N871   1.430       .  S
N871        O875   1.261       .  A
N871        O876   1.262       .  A
N874        O878   1.261       .  A
N874        O877   1.262       .  A
C879        C880   1.399       .  A
C879        C884   1.400       .  A
C879        H886   1.084       .  S
C880        C881   1.411       .  A
C881        C882   1.402       .  A
C881        N888   1.427   1_554  S
C882        C883   1.404       .  A
C882        H887   1.084   1_554  S
C883        C884   1.421       .  A
C884        N885   1.429       .  S
N885        O889   1.262       .  A
N885        O890   1.262       .  A
N888        O892   1.262       .  A
N888        O891   1.262   1_556  A
C893        C894   1.404       .  A
C893        C898   1.397       .  A
C893        H900   1.084       .  S
C894        C895   1.419   1_554  A
C895        C896   1.411   1_556  A
C895        N902   1.438       .  S
C896        C897   1.406       .  A
C896        H901   1.083   1_554  S
C897        C898   1.412       .  A
C898        N899   1.429       .  S
N899        O903   1.262       .  A
N899        O904   1.262       .  A
N902        O906   1.263       .  A
N902        O905   1.263       .  A
C907        C908   1.413       .  A
C907        C912   1.393       .  A
C907        H914   1.078       .  S
C908        C909   1.417       .  A
C909        C910   1.406       .  A
C909        N916   1.437       .  S
C910        C911   1.402       .  A
C910        H915   1.084       .  S
C911        C912   1.404       .  A
C912        N913   1.433       .  S
N913        O917   1.262       .  A
N913        O918   1.262       .  A
N916        O920   1.263       .  A
N916        O919   1.262       .  A
C921        C922   1.408       .  A
C921        C926   1.403       .  A
C921        H928   1.083       .  S
C922        C923   1.409       .  A
C923        C924   1.398       .  A
C923        N930   1.433       .  S
C924        C925   1.419       .  A
C924        H929   1.079       .  S
C925        C926   1.415       .  A
C926        N927   1.436       .  S
N927        O931   1.262       .  A
N927        O932   1.262       .  A
N930        O934   1.262       .  A
N930        O933   1.262       .  A
C935        C936   1.409       .  A
C935        C940   1.399       .  A
C935        H942   1.083       .  S
C936        C937   1.397       .  A
C937        C938   1.394       .  A
C937        N944   1.431       .  S
C938        C939   1.415       .  A
C938        H943   1.081       .  S
C939        C940   1.399       .  A
C940        N941   1.428       .  S
N941        O945   1.262       .  A
N941        O946   1.262       .  A
N944        O948   1.262       .  A
N944        O947   1.261       .  A
C949        C950   1.408       .  A
C949        C954   1.402       .  A
C949        H956   1.084       .  S
C950        C951   1.416       .  A
C951        N958   1.430       .  S
C952        C953   1.407       .  A
C952        H957   1.083       .  S
C954        N955   1.430       .  S
N955        O959   1.262       .  A
N958       O2077   1.262       .  A
O961       N2074   1.262       .  A
C963        C964   1.405       .  A
C963        C968   1.406       .  A
C963        H970   1.082       .  S
C964        C965   1.415       .  A
C965        C966   1.400       .  A
C965        N972   1.430       .  S
C966        C967   1.406       .  A
C966        H971   1.083       .  S
C967        C968   1.418       .  A
C968        N969   1.435       .  S
N969        O973   1.262       .  A
N969        O974   1.262       .  A
N972        O976   1.262       .  A
N972        O975   1.262       .  A
C977        C982   1.398       .  A
C977        H984   1.083       .  S
C978        C979   1.413   1_565  A
C979        N986   1.429   1_545  S
C980        C981   1.407       .  A
C980        H985   1.084       .  S
C981        C982   1.410       .  A
C982        N983   1.430       .  S
N983        O987   1.262       .  A
N983        O988   1.262       .  A
N986        O990   1.262       .  A
N986        O989   1.262       .  A
C991        C992   1.413       .  A
C991        C996   1.394       .  A
C991        H998   1.082       .  S
C992        C993   1.401       .  A
C993        C994   1.403       .  A
C993       N1000   1.428       .  S
C994        C995   1.410       .  A
C994        H999   1.084       .  S
C995        C996   1.398       .  A
C996        N997   1.429       .  S
N997       O1001   1.262       .  A
N997       O1002   1.261       .  A
N1000      O1004   1.262       .  A
N1000      O1003   1.262       .  A
C1005      C1006   1.402       .  A
C1005      C1010   1.409       .  A
C1005      H1012   1.084       .  S
C1006      C1007   1.410       .  A
C1007      C1008   1.395       .  A
C1007      N1014   1.431       .  S
C1008      C1009   1.415       .  A
C1008      H1013   1.078       .  S
C1009      C1010   1.421       .  A
C1010      N1011   1.435       .  S
N1011      O1015   1.263       .  A
N1011      O1016   1.262       .  A
N1014      O1018   1.261       .  A
N1014      O1017   1.262       .  A
C1019      C1020   1.411       .  A
C1019      C1024   1.391       .  A
C1019      H1026   1.072       .  S
C1020      C1021   1.412       .  A
C1021      C1022   1.401       .  A
C1021      N1028   1.436       .  S
C1022      C1023   1.411       .  A
C1022      H1027   1.083       .  S
C1023      C1024   1.405       .  A
C1024      N1025   1.432       .  S
N1025      O1029   1.262       .  A
N1025      O1030   1.262       .  A
N1028      O1032   1.263       .  A
N1028      O1031   1.262       .  A
C1033      C1034   1.406       .  A
C1033      C1038   1.396       .  A
C1033      H1040   1.084       .  S
C1034      C1035   1.422       .  A
C1035      C1036   1.417       .  A
C1035      N1042   1.435       .  S
C1036      C1037   1.408       .  A
C1036      H1041   1.083       .  S
C1037      C1038   1.411       .  A
C1038      N1039   1.429       .  S
N1039      O1043   1.261       .  A
N1039      O1044   1.262       .  A
N1042      O1046   1.262       .  A
N1042      O1045   1.262       .  A
C1047      C1048   1.403       .  A
C1047      C1052   1.397       .  A
C1047      H1054   1.082       .  S
C1048      C1049   1.410       .  A
C1049      C1050   1.401       .  A
C1049      N1056   1.429       .  S
C1050      C1051   1.405       .  A
C1050      H1055   1.084       .  S
C1051      C1052   1.414       .  A
C1052      N1053   1.436       .  S
N1053      O1057   1.262       .  A
N1053      O1058   1.263       .  A
N1056      O1060   1.261       .  A
N1056      O1059   1.262       .  A
C1061      C1062   1.407       .  A
C1061      C1066   1.395       .  A
C1061      H1068   1.084       .  S
C1062      C1063   1.415       .  A
C1063      C1064   1.413       .  A
C1063      N1070   1.428       .  S
C1064      C1065   1.411       .  A
C1064      H1069   1.083       .  S
C1065      C1066   1.415       .  A
C1066      N1067   1.431       .  S
N1067      O1072   1.262       .  A
N1070      O1074   1.261       .  A
N1070      O1073   1.262       .  A
C1075      C1076   1.416   1_556  A
C1075      C1080   1.394       .  A
C1075      H2198   1.078   1_556  S
C1076      C1077   1.417   1_554  A
C1077      C1078   1.403       .  A
C1077      N1084   1.433   1_556  S
C1078      C1079   1.400       .  A
C1078      H1083   1.084       .  S
C1079      C1080   1.408       .  A
C1080      N1081   1.433       .  S
N1081      O2201   1.261       .  A
N1081      O1086   1.262       .  A
H1082      C2191   1.078   1_554  S
N1084      O1088   1.262       .  A
N1084      O1087   1.262       .  A
O1085      N2197   1.261   1_455  A
C1089      C1094   1.403   1_556  A
C1089      H1096   1.084       .  S
C1090      C1091   1.396       .  A
C1091      C1092   1.392       .  A
C1091      N1098   1.430       .  S
C1092      H1097   1.080   1_455  S
C1093      C1094   1.401   1_565  A
C1094      N1095   1.429       .  S
N1095      O1099   1.262   1_545  A
N1095      O1100   1.262       .  A
N1098      O1102   1.262   1_455  A
N1098      O1101   1.262   1_455  A
C1103      C1104   1.413   1_556  A
C1103      C1108   1.397       .  A
C1103      H1110   1.076       .  S
C1105      C1106   1.403       .  A
C1105      N2228   1.437   1_556  S
C1106      C1107   1.410       .  A
C1106      H1111   1.083       .  S
C1108      N1109   1.433       .  S
N1109      O1113   1.262       .  A
N1109      O1114   1.262       .  A
N1112      C2221   1.437       .  S
N1112      O1116   1.262       .  A
N1112      O1115   1.263       .  A
C1117      C1118   1.416       .  A
C1117      C1122   1.404       .  A
C1118      C1119   1.412       .  A
C1118      H1123   1.083       .  S
C1119      C1120   1.414       .  A
C1119      C1205   1.505       .  S
C1120      C1121   1.415       .  A
C1120      H1124   1.083       .  S
C1121      C1122   1.398       .  A
C1121      C1273   1.487       .  S
C1122      H1125   1.084       .  S
C1126      C1127   1.407       .  A
C1126      C1131   1.415       .  A
C1127      C1128   1.402       .  A
C1127      H1132   1.083       .  S
C1128      C1129   1.405       .  A
C1128      C1251   1.475       .  S
C1129      C1130   1.400       .  A
C1129      H1133   1.084       .  S
C1130      C1131   1.412       .  A
C1130      C1199   1.486       .  S
C1131      H1134   1.083       .  S
C1135      C1136   1.409       .  A
C1135      C1698   1.409       .  A
C1135      C1662   1.501       .  S
C1136      C1137   1.416       .  A
C1136      H1141   1.077       .  S
C1137      C1138   1.408       .  A
C1137      C1634   1.517       .  S
C1139      C1651   1.482       .  S
C1140      C1693   1.409       .  A
O1144     Cr1162   2.029       .  S
O1144      C1152   1.268       .  A
O1145     Cr1162   1.970       .  S
O1145      C1146   1.254       .  A
C1146      C1606   1.478       .  S
C1146      O1147   1.260       .  A
O1147     Cr1163   2.008       .  S
O1148     Cr1163   1.976       .  S
O1148      C1149   1.266       .  A
C1149      C1323   1.468       .  S
C1149      O1150   1.271       .  A
O1150     Cr1164   1.998       .  S
O1151     Cr1164   1.955       .  S
O1151      C1152   1.255       .  A
C1152      C1620   1.498       .  S
O1153     Cr1162   1.968   1_565  S
O1153      C1719   1.259       .  A
O1154     Cr1162   2.030       .  S
O1154      C1155   1.278       .  A
C1155      O1156   1.261       .  A
O1156     Cr1163   1.969       .  S
O1157     Cr1163   1.996       .  S
O1157      C1158   1.257       .  A
C1158      C1665   1.481       .  S
C1158      O1159   1.253   1_545  A
O1159     Cr1164   1.962   1_565  S
O1160     Cr1722   2.009       .  S
O1160      C1161   1.266       .  A
C1161      C1214   1.481       .  S
C1161      O1711   1.261       .  A
Cr1162     O1165   1.771       .  S
Cr1163     O1165   1.786       .  S
Cr1164     O1718   2.010   1_545  S
Cr1164     O1165   1.767       .  S
O1166     Cr1184   1.966       .  S
O1166      C1174   1.251       .  A
O1167     Cr1184   2.022       .  S
O1167      C1168   1.265       .  A
C1168      C1592   1.504       .  S
C1168      O1169   1.258       .  A
O1169     Cr1185   1.965       .  S
O1170     Cr1185   1.991       .  S
O1170      C1171   1.269       .  A
C1171      C1334   1.482       .  S
C1171      O1172   1.272       .  A
O1172     Cr1186   1.998       .  S
O1173     Cr1186   2.001       .  S
O1173      C1174   1.258       .  A
C1174      C1609   1.476       .  S
O1175     Cr1184   2.029       .  S
O1175      C1183   1.276       .  A
O1176     Cr1184   1.966       .  S
O1176      C1177   1.259       .  A
C1177      C1210   1.480       .  S
C1177      O1178   1.267       .  A
O1178     Cr1185   2.015       .  S
O1179     Cr1185   1.983       .  S
O1179      C1180   1.261       .  A
C1180      C1637   1.466       .  S
C1180      O1181   1.250       .  A
O1181     Cr1186   1.960       .  S
O1182     Cr1186   1.977       .  S
O1182      C1183   1.260       .  A
Cr1184     O1187   1.785       .  S
Cr1185     O1187   1.776       .  S
Cr1186     O1187   1.791       .  S
O1188     Cr1206   2.005       .  S
O1188      C1196   1.261       .  A
O1189     Cr1206   2.022       .  S
O1189      C1190   1.267       .  A
C1190      C1623   1.499       .  S
C1190      O1191   1.257       .  A
O1191     Cr1207   1.966   1_545  S
O1192     Cr1207   2.003   1_545  S
O1192      C1193   1.268       .  A
C1193      C1416   1.486       .  S
C1193      O1194   1.271       .  A
O1194     Cr1208   1.994       .  S
O1195     Cr1208   2.004       .  S
O1195      C1196   1.261       .  A
C1196      C1595   1.492       .  S
O1197     Cr1206   2.028       .  S
O1197      C1205   1.273       .  A
O1198     Cr1206   1.987   1_565  S
O1198      C1757   1.264       .  A
C1199      O1756   1.265       .  A
C1199      O1200   1.263       .  A
O1200     Cr1765   1.997       .  S
O1201     Cr1207   1.978       .  S
O1201      C1202   1.255   1_565  A
C1202      C1648   1.464   1_545  S
C1202      O1203   1.254       .  A
O1203     Cr1208   1.986       .  S
O1204     Cr1208   2.005       .  S
O1204      C1205   1.269       .  A
Cr1206     O1209   1.789       .  S
Cr1207     O1758   2.001       .  S
Cr1207     O1209   1.785   1_565  S
Cr1208     O1209   1.782       .  S
C1210      C1211   1.410       .  A
C1210      C1215   1.413       .  A
C1211      C1212   1.400       .  A
C1211      H1216   1.084       .  S
C1212      C1213   1.403       .  A
C1212      C1295   1.477       .  S
C1213      C1214   1.398       .  A
C1213      H1217   1.085       .  S
C1214      C1215   1.410       .  A
C1215      H1218   1.083       .  S
C1219      C1220   1.410       .  A
C1219      C1224   1.405       .  A
C1219      C1307   1.488       .  S
C1220      C1221   1.413       .  A
C1220      H1225   1.084       .  S
C1221      C1222   1.402       .  A
C1221      C1257   1.474       .  S
C1222      C1223   1.397       .  A
C1222      H1226   1.084       .  S
C1223      C1224   1.407       .  A
C1223      C1375   1.475       .  S
C1224      H1227   1.084       .  S
C1228      C1233   1.415       .  A
C1228      C1279   1.506       .  S
C1229      C1230   1.411       .  A
C1229      H1234   1.083       .  S
C1230      C1231   1.398       .  A
C1231      H1235   1.083       .  S
C1232      C1233   1.420       .  A
C1232      C1263   1.490       .  S
C1233      H1236   1.083       .  S
C1237      C1238   1.405       .  A
C1237      C1242   1.409       .  A
C1237      C1578   1.493       .  S
C1238      C1239   1.394       .  A
C1238      H1243   1.084       .  S
C1239      C1240   1.397       .  A
C1239      C1550   1.480       .  S
C1240      C1241   1.412       .  A
C1240      H1244   1.079       .  S
C1241      C1242   1.416       .  A
C1241      C1567   1.525       .  S
C1242      H1245   1.075       .  S
O1246     Cr1264   1.986       .  S
O1247     Cr1264   2.020       .  S
O1247      C1248   1.266       .  A
C1248      C1536   1.491       .  S
C1248      O1249   1.256       .  A
O1249     Cr1265   1.960       .  S
O1250     Cr1265   1.994       .  S
O1250      C1251   1.269       .  A
C1251      O1252   1.270       .  A
O1252     Cr1266   1.988       .  S
O1253      C1254   1.258       .  A
C1254      C1522   1.485       .  S
O1255     Cr1264   2.027       .  S
O1255      C1263   1.277       .  A
O1256     Cr1264   1.975       .  S
O1256      C1257   1.261       .  A
C1257      O1258   1.263       .  A
O1258     Cr1265   1.996       .  S
O1259     Cr1265   1.966       .  S
O1259      C1260   1.254       .  A
C1260      C1581   1.473       .  S
C1260      O1261   1.252       .  A
O1261     Cr1266   1.973       .  S
O1262     Cr1266   1.979       .  S
O1262      C1263   1.263       .  A
Cr1264     O1267   1.776       .  S
Cr1265     O1267   1.772       .  S
Cr1266     O1267   1.786       .  S
O1268     Cr1286   2.007       .  S
O1268      C1276   1.264       .  A
O1269     Cr1286   2.000       .  S
C1270      C1508   1.503       .  S
C1270      O1271   1.261       .  A
O1272     Cr1287   2.002       .  S
O1272      C1273   1.276       .  A
C1273      O1274   1.268       .  A
O1274     Cr1288   1.998       .  S
O1275     Cr1288   1.973       .  S
O1275      C1276   1.259       .  A
C1276      C1539   1.493       .  S
O1277     Cr1286   1.986       .  S
O1277      C1285   1.262       .  A
O1278     Cr1286   2.022       .  S
O1278      C1279   1.274       .  A
C1279      O1280   1.270       .  A
O1280     Cr1287   2.009       .  S
O1281     Cr1287   1.974       .  S
O1281      C1282   1.251       .  A
C1282      C1553   1.468       .  S
C1282      O1283   1.258       .  A
O1283     Cr1288   1.987       .  S
O1284     Cr1288   1.993       .  S
O1284      C1285   1.263       .  A
C1285      C1316   1.479       .  S
Cr1286     O1289   1.786       .  S
Cr1287     O1289   1.784       .  S
Cr1288     O1289   1.782       .  S
O1290     Cr1308   2.005       .  S
O1290      C1298   1.263       .  A
O1291     Cr1308   1.985       .  S
O1291      C1292   1.252       .  A
C1292      C1525   1.482       .  S
C1292      O1293   1.255       .  A
O1293     Cr1309   1.995       .  S
O1294     Cr1309   1.997       .  S
O1294      C1295   1.274       .  A
C1295      O1296   1.269       .  A
O1296     Cr1310   1.984       .  S
O1297     Cr1310   1.978       .  S
O1297      C1298   1.258       .  A
C1298      C1511   1.498       .  S
O1299     Cr1308   1.980       .  S
O1299      C1307   1.262       .  A
O1300     Cr1308   2.027       .  S
O1300      C1301   1.277       .  A
C1301      C1312   1.492       .  S
C1301      O1302   1.265       .  A
O1302     Cr1309   1.983       .  S
O1303     Cr1309   1.959       .  S
O1303      C1304   1.246       .  A
C1304      C1564   1.479       .  S
C1304      O1305   1.259       .  A
O1305     Cr1310   1.988       .  S
O1306     Cr1310   2.010       .  S
O1306      C1307   1.266       .  A
Cr1308     O1311   1.785       .  S
Cr1309     O1311   1.791       .  S
Cr1310     O1311   1.787       .  S
C1312      C1313   1.402       .  A
C1312      C1317   1.411       .  A
C1313      C1314   1.406       .  A
C1313      H1318   1.083       .  S
C1314      C1315   1.401       .  A
C1314      C1397   1.477       .  S
C1315      C1316   1.404       .  A
C1315      H1319   1.084       .  S
C1316      C1317   1.413       .  A
C1317      H1320   1.084       .  S
C1321      C1322   1.404       .  A
C1321      C1326   1.414   1_556  A
C1321      C1359   1.479   1_556  S
C1322      C1323   1.401       .  A
C1322      H1327   1.084       .  S
C1323      C1324   1.397       .  A
C1324      C1325   1.398       .  A
C1324      H1328   1.085       .  S
C1325      C1326   1.412   1_556  A
C1325      C1945   1.482   1_556  S
C1326      H1329   1.084       .  S
C1330      C1331   1.411   1_556  A
C1330      C1335   1.399       .  A
C1330      C1403   1.485   1_556  S
C1331      C1332   1.415   1_554  A
C1331      H1336   1.083       .  S
C1332      C1333   1.416       .  A
C1332      C1365   1.496   1_556  S
C1333      C1334   1.407       .  A
C1333      H1337   1.083       .  S
C1334      C1335   1.403       .  A
C1335      H1338   1.085       .  S
C1339      C1340   1.404       .  A
C1339      C1344   1.410       .  A
C1339      C1466   1.504       .  S
C1340      C1341   1.394       .  A
C1340      H1345   1.082       .  S
C1341      C1342   1.399       .  A
C1341      C1497   1.478       .  S
C1342      C1343   1.409       .  A
C1342      H1346   1.080       .  S
C1343      C1344   1.418       .  A
C1343      C1483   1.519       .  S
C1344      H1347   1.076       .  S
O1348     Cr1366   1.991       .  S
O1348      C1356   1.259       .  A
O1349     Cr1366   1.996       .  S
O1349      C1350   1.259       .  A
C1350      C1438   1.480       .  S
C1350      O1351   1.257       .  A
O1352      C1353   1.264       .  A
C1353      O1354   1.274       .  A
O1355      C1356   1.258       .  A
C1356      C1455   1.487       .  S
O1357      C1365   1.270       .  A
O1358      C1359   1.261   1_556  A
C1359      O1360   1.265       .  A
O1360     Cr1367   2.004       .  S
O1361     Cr1367   1.979       .  S
O1361      C1362   1.256       .  A
C1362      C1494   1.461       .  S
C1362      O1363   1.253       .  A
O1363     Cr1368   1.975       .  S
O1364     Cr1368   1.998       .  S
O1364      C1365   1.267       .  A
Cr1367     O1369   1.779       .  S
Cr1368     O1369   1.782       .  S
O1370     Cr1388   2.032       .  S
O1370      C1378   1.269       .  A
O1371     Cr1388   1.987       .  S
O1371      C1372   1.255       .  A
C1372      C1452   1.484       .  S
C1372      O1373   1.259       .  A
O1373     Cr1389   1.996       .  S
O1374     Cr1389   1.992       .  S
O1374      C1375   1.272       .  A
C1375      O1376   1.268       .  A
O1376     Cr1390   1.990       .  S
O1377     Cr1390   1.960       .  S
O1377      C1378   1.257       .  A
C1378      C1424   1.506       .  S
O1379     Cr1388   1.970   1_556  S
O1379      C1387   1.261   1_556  A
O1380     Cr1388   2.041   1_556  S
O1380      C1381   1.279   1_556  A
C1381      C1976   1.500   1_554  S
C1381      O1382   1.266       .  A
O1382     Cr1389   1.989       .  S
O1383     Cr1947   1.974   1_545  S
O1383      C1384   1.249       .  A
C1384      C1480   1.486       .  S
C1384      O1385   1.254       .  A
O1385     Cr1948   1.976   1_545  S
O1386     Cr1390   1.991       .  S
O1386      C1387   1.260       .  A
C1387      C1883   1.473   1_554  S
Cr1388     O1391   1.779       .  S
Cr1389     O1941   1.982       .  S
Cr1389     O1391   1.784       .  S
Cr1390     O1943   1.966       .  S
Cr1390     O1391   1.777       .  S
O1392     Cr1410   1.997       .  S
O1392      C1400   1.259       .  A
O1393     Cr1410   2.026       .  S
O1393      C1394   1.267       .  A
C1394      C1427   1.508       .  S
C1394      O1395   1.256       .  A
O1395     Cr1411   1.968       .  S
O1396     Cr1411   1.992       .  S
O1396      C1397   1.270       .  A
C1397      O1398   1.271       .  A
O1398     Cr1412   1.991       .  S
O1399     Cr1412   1.991       .  S
O1399      C1400   1.254       .  A
C1400      C1441   1.492       .  S
O1401     Cr1410   2.030   1_556  S
O1401      C1409   1.277   1_556  A
O1402     Cr1410   1.984   1_556  S
O1402      C1403   1.263   1_556  A
C1403      O1404   1.264       .  A
O1404     Cr1411   2.000       .  S
O1405     Cr1411   1.981       .  S
O1405      C1406   1.255       .  A
C1406      C1469   1.462       .  S
C1406      O1407   1.251       .  A
O1407     Cr1412   1.969       .  S
O1408     Cr1412   1.978       .  S
O1408      C1409   1.264       .  A
C1409      C1414   1.488   1_554  S
Cr1410     O1413   1.783       .  S
Cr1411     O1413   1.781       .  S
Cr1412     O1413   1.784       .  S
C1414      C1415   1.406       .  A
C1414      C1419   1.414   1_556  A
C1415      C1416   1.401       .  A
C1415      H1420   1.083       .  S
C1416      C1417   1.410       .  A
C1417      C1418   1.410       .  A
C1417      H1421   1.083       .  S
C1418      C1419   1.412   1_556  A
C1418      C1939   1.497   1_556  S
C1419      H1422   1.083       .  S
C1423      C1424   1.406       .  A
C1423      C1428   1.397       .  A
C1423      H1430   1.084       .  S
C1424      C1425   1.417   1_554  A
C1425      C1426   1.418   1_556  A
C1425      N1432   1.431       .  S
C1426      C1427   1.413       .  A
C1426      H1431   1.083   1_554  S
C1427      C1428   1.419       .  A
C1428      N1429   1.431       .  S
N1429      O1433   1.261       .  A
N1429      O1434   1.262       .  A
N1432      O1436   1.262       .  A
N1432      O1435   1.262       .  A
C1437      C1438   1.400       .  A
C1437      C1442   1.401       .  A
C1437      H1444   1.084       .  S
C1438      C1439   1.412       .  A
C1439      C1440   1.403       .  A
C1439      N1446   1.428   1_554  S
C1440      C1441   1.404       .  A
C1440      H1445   1.084   1_554  S
C1441      C1442   1.420       .  A
C1442      N1443   1.429       .  S
N1443      O1447   1.262       .  A
N1443      O1448   1.262       .  A
N1446      O1450   1.262       .  A
N1446      O1449   1.262   1_556  A
C1451      C1452   1.403       .  A
C1451      C1456   1.395       .  A
C1451      H1458   1.084       .  S
C1452      C1453   1.415   1_554  A
C1453      C1454   1.408       .  A
C1453      N1460   1.433       .  S
C1454      C1455   1.406   1_556  A
C1454      H1459   1.083       .  S
C1455      C1456   1.414       .  A
C1456      N1457   1.429       .  S
N1457      O1461   1.262       .  A
N1457      O1462   1.262       .  A
N1460      O1464   1.262       .  A
N1460      O1463   1.262       .  A
C1465      C1466   1.414       .  A
C1465      C1470   1.391       .  A
C1465      H1472   1.077       .  S
C1466      C1467   1.419       .  A
C1467      C1468   1.406       .  A
C1467      N1474   1.437       .  S
C1468      C1469   1.402       .  A
C1468      H1473   1.084       .  S
C1469      C1470   1.402       .  A
C1470      N1471   1.432       .  S
N1471      O1475   1.262       .  A
N1471      O1476   1.262       .  A
N1474      O1478   1.262       .  A
N1474      O1477   1.263       .  A
C1479      C1480   1.408       .  A
C1479      C1484   1.404       .  A
C1479      H1486   1.083       .  S
C1480      C1481   1.411       .  A
C1481      C1482   1.401       .  A
C1481      N1488   1.434       .  S
C1482      C1483   1.418       .  A
C1482      H1487   1.078       .  S
C1483      C1484   1.416       .  A
C1484      N1485   1.436       .  S
N1485      O1489   1.262       .  A
N1485      O1490   1.262       .  A
N1488      O1492   1.262       .  A
N1488      O1491   1.262       .  A
C1493      C1494   1.409       .  A
C1493      C1498   1.398       .  A
C1493      H1500   1.083       .  S
C1494      C1495   1.396       .  A
C1495      C1496   1.393       .  A
C1495      N1502   1.429       .  S
C1496      C1497   1.415       .  A
C1496      H1501   1.081       .  S
C1497      C1498   1.401       .  A
C1498      N1499   1.430       .  S
N1499      O1503   1.262       .  A
N1499      O1504   1.262       .  A
N1502      O1506   1.262       .  A
N1502      O1505   1.261       .  A
C1507      C1508   1.407       .  A
C1507      C1512   1.407   1_545  A
C1507      H1514   1.084       .  S
C1508      C1509   1.420       .  A
C1509      C2068   1.407       .  A
C1509      N1516   1.429       .  S
C1510      C2067   1.406       .  A
C1510      C1511   1.406       .  A
C1510      H1515   1.084       .  S
C1511      C2070   1.415       .  A
C1512      C2069   1.414       .  A
C1512      N1513   1.427       .  S
N1513      O1517   1.262       .  A
N1513      O2076   1.262       .  A
N1516      O2078   1.262       .  A
O1518      N2071   1.262       .  A
O1520      N2074   1.262       .  A
C1521      C1522   1.406       .  A
C1521      C1526   1.410       .  A
C1521      H1528   1.083       .  S
C1522      C1523   1.414       .  A
C1523      C1524   1.396       .  A
C1523      N1530   1.430       .  S
C1524      C1525   1.402       .  A
C1524      H1529   1.084       .  S
C1525      C1526   1.416       .  A
C1526      N1527   1.438       .  S
N1527      O1531   1.263       .  A
N1527      O1532   1.263       .  A
N1530      O1534   1.262       .  A
N1530      O1533   1.262       .  A
C1535      C2094   1.406   1_545  A
C1535      C1540   1.398       .  A
C1535      H1542   1.084       .  S
C1536      C2093   1.405       .  A
C1536      C1537   1.413       .  A
C1537      C2096   1.410       .  A
C1537      N1544   1.429       .  S
C1538      C2095   1.409       .  A
C1538      C1539   1.409       .  A
C1538      H1543   1.083       .  S
C1539      C1540   1.413       .  A
C1540      N1541   1.431       .  S
N1541      O1545   1.262       .  A
N1541      O1546   1.262       .  A
N1544      O1548   1.262       .  A
N1544      O1547   1.261       .  A
C1549      C1550   1.413       .  A
C1549      C1554   1.396       .  A
C1549      H1556   1.083       .  S
C1550      C1551   1.401       .  A
C1551      C1552   1.400       .  A
C1551      N1558   1.428       .  S
C1552      C1553   1.411       .  A
C1552      H1557   1.084       .  S
C1553      C1554   1.399       .  A
C1554      N1555   1.431       .  S
N1555      O1559   1.262       .  A
N1555      O1560   1.261       .  A
N1558      O1562   1.262       .  A
N1558      O1561   1.262       .  A
C1563      C1564   1.400       .  A
C1563      C1568   1.408       .  A
C1563      H1570   1.084       .  S
C1564      C1565   1.413       .  A
C1565      C1566   1.396       .  A
C1565      N1572   1.431       .  S
C1566      C1567   1.414       .  A
C1566      H1571   1.078       .  S
C1567      C1568   1.421       .  A
C1568      N1569   1.434       .  S
N1569      O1573   1.263       .  A
N1569      O1574   1.262       .  A
N1572      O1576   1.262       .  A
N1572      O1575   1.262       .  A
C1577      C1578   1.409       .  A
C1577      C1582   1.390       .  A
C1577      H1584   1.071       .  S
C1578      C1579   1.410       .  A
C1579      C1580   1.400       .  A
C1579      N1586   1.435       .  S
C1580      C1581   1.412       .  A
C1580      H1585   1.084       .  S
C1581      C1582   1.404       .  A
C1582      N1583   1.433       .  S
N1583      O1587   1.262       .  A
N1583      O1588   1.262       .  A
N1586      O1590   1.263       .  A
N1586      O1589   1.262       .  A
C1591      C1592   1.406       .  A
C1591      C1596   1.395       .  A
C1591      H1598   1.084       .  S
C1592      C1593   1.420       .  A
C1593      C1594   1.417       .  A
C1593      N1600   1.429       .  S
C1594      C1595   1.408       .  A
C1594      H1599   1.083       .  S
C1595      C1596   1.409       .  A
C1596      N1597   1.428       .  S
N1597      O1601   1.262       .  A
N1597      O1602   1.262       .  A
N1600      O1604   1.261       .  A
N1600      O1603   1.262       .  A
C1605      C1606   1.402       .  A
C1605      C1610   1.398       .  A
C1605      H1612   1.083       .  S
C1606      C1607   1.410       .  A
C1607      C1608   1.400       .  A
C1607      N1614   1.428       .  S
C1608      C1609   1.404       .  A
C1608      H1613   1.084       .  S
C1609      C1610   1.416       .  A
C1610      N1611   1.435       .  S
N1611      O1615   1.262       .  A
N1611      O1616   1.263       .  A
N1614      O1618   1.261       .  A
N1614      O1617   1.262       .  A
C1619      C1620   1.407   1_565  A
C1619      C1624   1.396       .  A
C1619      H1626   1.084       .  S
C1620      C1621   1.415       .  A
C1621      C1622   1.414       .  A
C1621      N1628   1.428       .  S
C1622      C1623   1.411       .  A
C1622      H1627   1.083       .  S
C1623      C1624   1.416   1_545  A
C1624      N1625   1.431       .  S
N1625      O2187   1.262       .  A
N1625      O1630   1.262       .  A
N1628      O1632   1.262       .  A
N1628      O1631   1.262       .  A
O1629      N2183   1.262       .  A
C1633      C1634   1.417   1_556  A
C1633      C1638   1.393       .  A
C1634      C1635   1.418   1_554  A
C1635      C1636   1.404       .  A
C1635      N1642   1.433   1_556  S
C1636      C1637   1.400       .  A
C1636      H1641   1.084       .  S
C1637      C1638   1.407       .  A
C1638      N1639   1.432       .  S
N1639      O1644   1.262   1_655  A
N1642      O1646   1.262       .  A
N1642      O1645   1.262       .  A
C1647      C2206   1.411       .  A
C1647      C1652   1.403   1_556  A
C1647      H1654   1.084       .  S
C1648      C2205   1.409   1_565  A
C1648      C1649   1.396       .  A
C1649      C1650   1.393       .  A
C1649      N1656   1.430       .  S
C1650      C2209   1.415   1_556  A
C1650      H1655   1.080       .  S
C1651      C2208   1.413   1_554  A
C1651      C1652   1.402       .  A
C1652      N1653   1.431       .  S
N1653      O1657   1.262       .  A
N1653      O1658   1.262       .  A
N1656      O1660   1.262   1_565  A
N1656      O1659   1.261       .  A
C1661      C1662   1.412   1_556  A
C1661      C1666   1.396       .  A
C1661      H1668   1.077       .  S
C1662      C2221   1.412       .  A
C1663      C2220   1.414   1_545  A
C1663      C1664   1.404   1_554  A
C1664      C1665   1.411       .  A
C1664      H1669   1.083       .  S
C1665      C2224   1.409   1_545  A
C1666      C2223   1.410       .  A
C1666      N1667   1.433       .  S
N1667      O1671   1.262       .  A
N1667      O1672   1.262       .  A
N1670      O1674   1.262       .  A
N1670      O1673   1.263       .  A
C1675      C1676   1.415       .  A
C1675      C1680   1.403       .  A
C1676      C1677   1.410       .  A
C1676      H1681   1.083       .  S
C1677      C1678   1.411       .  A
C1677      C1763   1.501       .  S
C1678      C1679   1.413       .  A
C1678      H1682   1.083       .  S
C1679      C1680   1.398       .  A
C1679      C1831   1.484       .  S
C1680      H1683   1.084       .  S
C1684      C1685   1.406       .  A
C1684      C1689   1.418       .  A
C1685      C1686   1.401       .  A
C1685      H1690   1.084       .  S
C1686      C1687   1.401       .  A
C1686      C1809   1.469       .  S
C1687      C1688   1.397       .  A
C1687      H1691   1.085       .  S
C1688      C1689   1.413       .  A
C1688      C1757   1.485       .  S
C1689      H1692   1.083       .  S
C1693      C1694   1.412       .  A
C1693      C2220   1.501       .  S
C1694      C1695   1.417       .  A
C1694      H1699   1.076       .  S
C1695      C1696   1.408       .  A
C1695      C2192   1.522       .  S
C1697      C2209   1.487       .  S
O1702     Cr1720   2.030       .  S
O1702      C1710   1.268       .  A
O1703     Cr1720   1.976       .  S
O1703      C1704   1.257       .  A
C1704      C2164   1.488       .  S
C1704      O1705   1.261       .  A
O1705     Cr1721   2.007       .  S
O1706     Cr1721   1.970       .  S
O1706      C1707   1.263       .  A
C1707      C1881   1.467       .  S
C1707      O1708   1.273       .  A
O1708     Cr1722   1.999       .  S
O1709     Cr1722   1.960       .  S
O1709      C1710   1.256       .  A
C1710      C2178   1.500       .  S
O1711     Cr1720   1.972       .  S
O1712     Cr1720   2.028       .  S
O1712      C1713   1.277       .  A
C1713      O1714   1.261       .  A
O1714     Cr1721   1.969       .  S
O1715     Cr1721   1.998       .  S
O1715      C1716   1.257       .  A
C1716      C2223   1.481       .  S
C1716      O1717   1.251       .  A
O1717     Cr1722   1.962       .  S
O1718      C1719   1.265       .  A
C1719      C1772   1.480       .  S
Cr1720     O1723   1.771       .  S
Cr1721     O1723   1.786       .  S
Cr1722     O1723   1.769       .  S
O1724     Cr1742   1.972       .  S
O1724      C1732   1.253       .  A
O1725     Cr1742   2.012       .  S
O1725      C1726   1.263       .  A
C1726      C2150   1.505       .  S
C1726      O1727   1.259       .  A
O1727     Cr1743   1.973       .  S
O1728     Cr1743   1.993       .  S
O1728      C1729   1.270       .  A
C1729      C1892   1.480       .  S
C1729      O1730   1.272       .  A
O1730     Cr1744   1.994       .  S
O1731     Cr1744   2.005       .  S
O1731      C1732   1.260       .  A
C1732      C2167   1.489       .  S
O1733     Cr1742   2.024       .  S
O1733      C1741   1.274       .  A
O1734     Cr1742   1.970       .  S
O1734      C1735   1.260       .  A
C1735      C1768   1.481       .  S
C1735      O1736   1.267       .  A
O1736     Cr1743   2.012       .  S
O1737     Cr1743   1.984       .  S
O1737      C1738   1.260       .  A
C1738      C2195   1.472       .  S
C1738      O1739   1.251       .  A
O1739     Cr1744   1.968       .  S
O1740     Cr1744   1.981       .  S
O1740      C1741   1.262       .  A
Cr1742     O1745   1.783       .  S
Cr1743     O1745   1.778       .  S
Cr1744     O1745   1.791       .  S
O1746     Cr1764   2.005       .  S
O1746      C1754   1.260       .  A
O1747     Cr1764   2.015       .  S
O1747      C1748   1.265       .  A
C1748      C2181   1.499       .  S
C1748      O1749   1.258       .  A
O1749     Cr1765   1.972       .  S
O1750     Cr1765   2.000       .  S
O1750      C1751   1.269       .  A
C1751      C1974   1.485       .  S
C1751      O1752   1.273       .  A
O1752     Cr1766   1.997       .  S
O1753     Cr1766   1.999       .  S
O1753      C1754   1.258       .  A
C1754      C2153   1.494       .  S
O1755     Cr1764   2.023       .  S
O1755      C1763   1.273       .  A
O1756     Cr1764   1.992       .  S
C1757      O1758   1.264       .  A
O1759     Cr1765   1.983       .  S
O1759      C1760   1.255       .  A
C1760      C2206   1.468       .  S
C1760      O1761   1.252       .  A
O1761     Cr1766   1.985       .  S
O1762     Cr1766   2.003       .  S
O1762      C1763   1.270       .  A
Cr1764     O1767   1.788       .  S
Cr1765     O1767   1.783       .  S
Cr1766     O1767   1.785       .  S
C1768      C1769   1.411       .  A
C1768      C1773   1.413       .  A
C1769      C1770   1.402       .  A
C1769      H1774   1.084       .  S
C1770      C1771   1.402       .  A
C1770      C1853   1.479       .  S
C1771      C1772   1.399       .  A
C1771      H1775   1.085       .  S
C1772      C1773   1.408       .  A
C1773      H1776   1.084       .  S
C1777      C1778   1.410       .  A
C1777      C1782   1.404       .  A
C1777      C1865   1.487       .  S
C1778      C1779   1.414       .  A
C1778      H1783   1.084       .  S
C1779      C1780   1.403       .  A
C1779      C1815   1.476       .  S
C1780      C1781   1.398       .  A
C1780      H1784   1.084       .  S
C1781      C1782   1.405       .  A
C1781      C1933   1.476       .  S
C1782      H1785   1.084       .  S
C1786      C1791   1.413       .  A
C1786      C1837   1.504       .  S
C1787      C1788   1.410       .  A
C1787      H1792   1.083       .  S
C1788      C1789   1.396       .  A
C1789      H1793   1.083       .  S
C1790      C1791   1.418       .  A
C1790      C1821   1.486       .  S
C1791      H1794   1.083       .  S
C1795      C1796   1.406       .  A
C1795      C1800   1.408       .  A
C1795      C2136   1.494       .  S
C1796      C1797   1.395       .  A
C1796      H1801   1.084       .  S
C1797      C1798   1.397       .  A
C1797      C2108   1.482       .  S
C1798      C1799   1.410       .  A
C1798      H1802   1.080       .  S
C1799      C1800   1.416       .  A
C1799      C2125   1.523       .  S
C1800      H1803   1.075       .  S
O1804     Cr1822   1.987       .  S
O1805     Cr1822   2.019       .  S
O1805      C1806   1.266       .  A
C1806      C2094   1.491       .  S
C1806      O1807   1.256       .  A
O1807     Cr1823   1.958       .  S
O1808     Cr1823   1.993       .  S
O1808      C1809   1.270       .  A
C1809      O1810   1.268       .  A
O1810     Cr1824   1.980       .  S
O1811      C1812   1.257       .  A
C1812      C2080   1.482       .  S
O1813     Cr1822   2.022       .  S
O1813      C1821   1.276       .  A
O1814     Cr1822   1.975       .  S
O1814      C1815   1.261       .  A
C1815      O1816   1.263       .  A
O1816     Cr1823   1.998       .  S
O1817     Cr1823   1.966       .  S
O1817      C1818   1.253       .  A
C1818      C2139   1.476       .  S
C1818      O1819   1.254       .  A
O1819     Cr1824   1.982       .  S
O1820     Cr1824   1.976       .  S
O1820      C1821   1.262       .  A
Cr1822     O1825   1.774       .  S
Cr1823     O1825   1.772       .  S
Cr1824     O1825   1.786       .  S
O1826     Cr1844   2.013       .  S
O1826      C1834   1.265       .  A
O1827     Cr1844   1.998       .  S
C1828      C2066   1.499       .  S
C1828      O1829   1.262       .  A
O1830     Cr1845   1.999       .  S
O1830      C1831   1.274       .  A
C1831      O1832   1.267       .  A
O1832     Cr1846   1.994       .  S
O1833     Cr1846   1.971       .  S
O1833      C1834   1.258       .  A
C1834      C2097   1.493       .  S
O1835     Cr1844   1.983       .  S
O1835      C1843   1.262       .  A
O1836     Cr1844   2.022       .  S
O1836      C1837   1.273       .  A
C1837      O1838   1.270       .  A
O1838     Cr1845   2.008       .  S
O1839     Cr1845   1.982       .  S
O1839      C1840   1.253       .  A
C1840      C2111   1.465       .  S
C1840      O1841   1.256       .  A
O1841     Cr1846   1.982       .  S
O1842     Cr1846   1.991       .  S
O1842      C1843   1.262       .  A
C1843      C1874   1.474       .  S
Cr1844     O1847   1.784       .  S
Cr1845     O1847   1.782       .  S
Cr1846     O1847   1.782       .  S
O1848     Cr1866   2.006       .  S
O1848      C1856   1.263       .  A
O1849     Cr1866   1.985       .  S
O1849      C1850   1.253       .  A
C1850      C2083   1.478       .  S
C1850      O1851   1.255       .  A
O1851     Cr1867   1.992       .  S
O1852     Cr1867   1.996       .  S
O1852      C1853   1.274       .  A
C1853      O1854   1.271       .  A
O1854     Cr1868   1.987       .  S
O1855     Cr1868   1.985       .  S
O1855      C1856   1.259       .  A
C1856      C2069   1.498       .  S
O1857     Cr1866   1.975       .  S
O1857      C1865   1.262       .  A
O1858     Cr1866   2.025       .  S
O1858      C1859   1.276       .  A
C1859      C1870   1.492       .  S
C1859      O1860   1.265       .  A
O1860     Cr1867   1.986       .  S
O1861     Cr1867   1.957       .  S
O1861      C1862   1.246       .  A
C1862      C2122   1.476       .  S
C1862      O1863   1.260       .  A
O1863     Cr1868   1.990       .  S
O1864     Cr1868   2.013       .  S
O1864      C1865   1.267       .  A
Cr1866     O1869   1.785       .  S
Cr1867     O1869   1.791       .  S
Cr1868     O1869   1.787       .  S
C1870      C1871   1.403       .  A
C1870      C1875   1.412       .  A
C1871      C1872   1.405       .  A
C1871      H1876   1.082       .  S
C1872      C1873   1.397       .  A
C1872      C1955   1.473       .  S
C1873      C1874   1.401       .  A
C1873      H1877   1.084       .  S
C1874      C1875   1.414       .  A
C1875      H1878   1.084       .  S
C1879      C1880   1.406       .  A
C1879      C1884   1.413   1_556  A
C1879      C1917   1.480   1_556  S
C1880      C1881   1.403       .  A
C1880      H1885   1.084       .  S
C1881      C1882   1.393       .  A
C1882      C1883   1.392       .  A
C1882      H1886   1.085       .  S
C1883      C1884   1.410   1_556  A
C1884      H1887   1.084       .  S
C1888      C1889   1.410   1_556  A
C1888      C1893   1.399       .  A
C1888      C1961   1.482   1_556  S
C1889      C1890   1.413   1_554  A
C1889      H1894   1.083       .  S
C1890      C1891   1.414       .  A
C1890      C1923   1.492   1_556  S
C1891      C1892   1.405       .  A
C1891      H1895   1.083       .  S
C1892      C1893   1.403       .  A
C1893      H1896   1.085       .  S
C1897      C1898   1.408       .  A
C1897      C1902   1.406       .  A
C1897      C2024   1.510       .  S
C1898      C1899   1.407       .  A
C1898      H1903   1.080       .  S
C1899      C1900   1.411       .  A
C1899      C2055   1.516       .  S
C1900      C1901   1.407       .  A
C1900      H1904   1.079       .  S
C1901      C1902   1.411       .  A
C1901      C2041   1.506       .  S
C1902      H1905   1.081       .  S
O1906     Cr1924   1.983       .  S
O1906      C1914   1.258       .  A
O1907     Cr1924   2.007       .  S
O1907      C1908   1.264       .  A
C1908      C1996   1.481       .  S
C1908      O1909   1.257       .  A
O1910      C1911   1.265       .  A
C1911      O1912   1.275       .  A
O1913      C1914   1.259       .  A
C1914      C2013   1.492       .  S
O1915      C1923   1.267       .  A
O1916      C1917   1.262   1_556  A
C1917      O1918   1.266       .  A
O1918     Cr1925   2.006       .  S
O1919     Cr1925   1.984       .  S
O1919      C1920   1.260       .  A
C1920      C2052   1.464       .  S
C1920      O1921   1.252       .  A
O1921     Cr1926   1.961       .  S
O1922     Cr1926   1.996       .  S
O1922      C1923   1.265       .  A
Cr1925     O1927   1.789       .  S
Cr1926     O1927   1.781       .  S
O1928     Cr1946   2.015       .  S
O1928      C1936   1.263       .  A
O1929     Cr1946   1.991       .  S
O1929      C1930   1.255       .  A
C1930      C2010   1.488       .  S
C1930      O1931   1.255       .  A
O1931     Cr1947   1.995       .  S
O1932     Cr1947   1.993       .  S
O1932      C1933   1.275       .  A
C1933      O1934   1.270       .  A
O1934     Cr1948   1.990       .  S
O1935     Cr1948   1.966       .  S
O1935      C1936   1.257       .  A
C1936      C1982   1.504       .  S
O1937     Cr1946   1.977   1_546  S
O1937      C1945   1.264   1_556  A
O1938     Cr1946   2.033   1_556  S
O1938      C1939   1.277   1_566  A
C1939      O1940   1.270       .  A
O1940     Cr1947   1.993   1_545  S
O1941      C1942   1.253       .  A
C1942      C2038   1.479       .  S
C1942      O1943   1.253       .  A
O1944     Cr1948   1.997   1_545  S
O1944      C1945   1.263       .  A
Cr1946     O1949   1.783       .  S
Cr1947     O1949   1.789       .  S
Cr1948     O1949   1.786       .  S
O1950     Cr1968   1.993       .  S
O1950      C1958   1.258       .  A
O1951     Cr1968   2.024       .  S
O1951      C1952   1.267       .  A
C1952      C1985   1.503       .  S
C1952      O1953   1.255       .  A
O1953     Cr1969   1.965       .  S
O1954     Cr1969   1.985       .  S
O1954      C1955   1.267       .  A
C1955      O1956   1.270       .  A
O1956     Cr1970   1.989       .  S
O1957     Cr1970   2.005       .  S
O1957      C1958   1.258       .  A
C1958      C1999   1.491       .  S
O1959     Cr1968   2.030       .  S
O1959      C1967   1.276       .  A
O1960     Cr1968   1.982   1_556  S
O1960      C1961   1.263   1_556  A
C1961      O1962   1.264       .  A
O1962     Cr1969   1.998       .  S
O1963     Cr1969   1.978       .  S
O1963      C1964   1.256       .  A
C1964      C2027   1.463       .  S
C1964      O1965   1.254       .  A
O1965     Cr1970   1.979       .  S
O1966     Cr1970   1.985       .  S
O1966      C1967   1.265       .  A
C1967      C1972   1.493   1_554  S
Cr1968     O1971   1.780       .  S
Cr1969     O1971   1.782       .  S
Cr1970     O1971   1.784       .  S
C1972      C1973   1.406       .  A
C1972      C1977   1.416   1_556  A
C1973      C1974   1.401       .  A
C1973      H1978   1.082       .  S
C1974      C1975   1.410       .  A
C1975      C1976   1.408       .  A
C1975      H1979   1.084       .  S
C1976      C1977   1.416   1_556  A
C1977      H1980   1.083       .  S
C1981      C1982   1.406       .  A
C1981      C1986   1.396       .  A
C1981      H1988   1.084       .  S
C1982      C1983   1.419       .  A
C1983      C1984   1.416       .  A
C1983      N1990   1.432   1_554  S
C1984      C1985   1.411       .  A
C1984      H1989   1.083   1_554  S
C1985      C1986   1.419       .  A
C1986      N1987   1.430       .  S
N1987      O1991   1.261       .  A
N1987      O1992   1.261       .  A
N1990      O1994   1.262       .  A
N1990      O1993   1.262       .  A
C1995      C1996   1.400       .  A
C1995      C2000   1.405       .  A
C1995      H2002   1.083       .  S
C1996      C1997   1.412       .  A
C1997      C1998   1.404       .  A
C1997      N2004   1.429       .  S
C1998      C1999   1.402       .  A
C1998      H2003   1.084       .  S
C1999      C2000   1.416       .  A
C2000      N2001   1.428       .  S
N2001      O2005   1.261       .  A
N2001      O2006   1.262   1_554  A
N2004      O2008   1.261   1_554  A
N2004      O2007   1.262       .  A
C2009      C2010   1.406       .  A
C2009      C2014   1.399       .  A
C2009      H2016   1.084       .  S
C2010      C2011   1.414   1_554  A
C2011      C2012   1.407       .  A
C2011      N2018   1.434       .  S
C2012      C2013   1.407   1_556  A
C2012      H2017   1.082       .  S
C2013      C2014   1.415       .  A
C2014      N2015   1.430       .  S
N2015      O2019   1.262       .  A
N2015      O2020   1.262       .  A
N2018      O2022   1.262       .  A
N2018      O2021   1.262       .  A
C2023      C2024   1.418       .  A
C2023      C2028   1.393       .  A
C2023      H2030   1.075       .  S
C2024      C2025   1.418       .  A
C2025      C2026   1.408       .  A
C2025      N2032   1.435       .  S
C2026      C2027   1.404       .  A
C2026      H2031   1.084       .  S
C2027      C2028   1.399       .  A
C2028      N2029   1.435       .  S
N2029      O2033   1.262       .  A
N2029      O2034   1.262       .  A
N2032      O2036   1.262       .  A
N2032      O2035   1.263       .  A
C2037      C2038   1.412       .  A
C2037      C2042   1.405       .  A
C2037      H2044   1.083       .  S
C2038      C2039   1.405       .  A
C2039      C2040   1.392       .  A
C2039      N2046   1.434       .  S
C2040      C2041   1.414       .  A
C2040      H2045   1.073       .  S
C2041      C2042   1.413       .  A
C2042      N2043   1.436       .  S
N2043      O2047   1.263       .  A
N2043      O2048   1.262       .  A
N2046      O2050   1.262       .  A
N2046      O2049   1.262       .  A
C2051      C2052   1.403       .  A
C2051      C2056   1.408       .  A
C2051      H2058   1.084       .  S
C2052      C2053   1.403       .  A
C2053      C2054   1.393       .  A
C2053      N2060   1.437       .  S
C2054      C2055   1.417       .  A
C2054      H2059   1.075       .  S
C2055      C2056   1.420       .  A
C2056      N2057   1.436       .  S
N2057      O2061   1.263       .  A
N2057      O2062   1.262       .  A
N2060      O2064   1.263       .  A
N2060      O2063   1.262       .  A
C2065      C2066   1.406       .  A
C2065      C2070   1.407       .  A
C2065      H2072   1.084       .  S
C2066      C2067   1.419       .  A
C2067      N2074   1.431       .  S
C2068      C2069   1.406   1_545  A
C2068      H2073   1.084       .  S
C2070      N2071   1.427       .  S
N2071      O2075   1.262       .  A
C2079      C2080   1.406       .  A
C2079      C2084   1.409       .  A
C2079      H2086   1.084       .  S
C2080      C2081   1.413       .  A
C2081      C2082   1.394       .  A
C2081      N2088   1.430       .  S
C2082      C2083   1.400       .  A
C2082      H2087   1.084       .  S
C2083      C2084   1.414       .  A
C2084      N2085   1.436       .  S
N2085      O2089   1.262       .  A
N2085      O2090   1.263       .  A
N2088      O2092   1.262       .  A
N2088      O2091   1.262       .  A
C2093      C2098   1.398       .  A
C2093      H2100   1.084       .  S
C2094      C2095   1.413   1_565  A
C2095      N2102   1.428   1_545  S
C2096      C2097   1.409       .  A
C2096      H2101   1.084       .  S
C2097      C2098   1.414       .  A
C2098      N2099   1.430       .  S
N2099      O2103   1.262       .  A
N2099      O2104   1.262       .  A
N2102      O2106   1.262       .  A
N2102      O2105   1.261       .  A
C2107      C2108   1.413       .  A
C2107      C2112   1.394       .  A
C2107      H2114   1.082       .  S
C2108      C2109   1.403       .  A
C2109      C2110   1.403       .  A
C2109      N2116   1.431       .  S
C2110      C2111   1.410       .  A
C2110      H2115   1.084       .  S
C2111      C2112   1.398       .  A
C2112      N2113   1.430       .  S
N2113      O2117   1.262       .  A
N2113      O2118   1.262       .  A
N2116      O2120   1.262       .  A
N2116      O2119   1.262       .  A
C2121      C2122   1.400       .  A
C2121      C2126   1.407       .  A
C2121      H2128   1.084       .  S
C2122      C2123   1.411       .  A
C2123      C2124   1.395       .  A
C2123      N2130   1.432       .  S
C2124      C2125   1.416       .  A
C2124      H2129   1.078       .  S
C2125      C2126   1.421       .  A
C2126      N2127   1.434       .  S
N2127      O2131   1.263       .  A
N2127      O2132   1.262       .  A
N2130      O2134   1.262       .  A
N2130      O2133   1.262       .  A
C2135      C2136   1.410       .  A
C2135      C2140   1.392       .  A
C2135      H2142   1.073       .  S
C2136      C2137   1.409       .  A
C2137      C2138   1.401       .  A
C2137      N2144   1.435       .  S
C2138      C2139   1.412       .  A
C2138      H2143   1.084       .  S
C2139      C2140   1.407       .  A
C2140      N2141   1.432       .  S
N2141      O2145   1.262       .  A
N2141      O2146   1.262       .  A
N2144      O2148   1.263       .  A
N2144      O2147   1.262       .  A
C2149      C2150   1.407       .  A
C2149      C2154   1.398       .  A
C2149      H2156   1.084       .  S
C2150      C2151   1.424       .  A
C2151      C2152   1.417       .  A
C2151      N2158   1.436       .  S
C2152      C2153   1.406       .  A
C2152      H2157   1.083       .  S
C2153      C2154   1.412       .  A
C2154      N2155   1.430       .  S
N2155      O2159   1.262       .  A
N2155      O2160   1.262       .  A
N2158      O2162   1.262       .  A
N2158      O2161   1.262       .  A
C2163      C2164   1.404       .  A
C2163      C2168   1.398       .  A
C2163      H2170   1.083       .  S
C2164      C2165   1.415       .  A
C2165      C2166   1.402       .  A
C2165      N2172   1.429       .  S
C2166      C2167   1.406       .  A
C2166      H2171   1.083       .  S
C2167      C2168   1.415       .  A
C2168      N2169   1.429       .  S
N2169      O2173   1.262       .  A
N2169      O2174   1.262       .  A
N2172      O2176   1.262       .  A
N2172      O2175   1.262   1_655  A
C2177      C2178   1.408       .  A
C2177      C2182   1.399       .  A
C2177      H2184   1.084       .  S
C2178      C2179   1.416       .  A
C2179      C2180   1.413       .  A
C2179      N2186   1.429       .  S
C2180      C2181   1.410       .  A
C2180      H2185   1.083       .  S
C2181      C2182   1.415       .  A
C2182      N2183   1.432       .  S
N2183      O2188   1.262       .  A
N2186      O2190   1.262       .  A
N2186      O2189   1.262       .  A
C2191      C2192   1.417   1_556  A
C2191      C2196   1.396       .  A
C2192      C2193   1.418   1_554  A
C2193      C2194   1.405       .  A
C2193      N2200   1.431   1_556  S
C2194      C2195   1.400       .  A
C2194      H2199   1.084       .  S
C2195      C2196   1.409       .  A
C2196      N2197   1.432       .  S
N2197      O2202   1.262   1_655  A
N2200      O2204   1.262       .  A
N2200      O2203   1.262       .  A
C2205      C2210   1.405   1_546  A
C2205      H2212   1.084       .  S
C2206      C2207   1.399       .  A
C2207      C2208   1.395       .  A
C2207      N2214   1.430       .  S
C2208      H2213   1.083       .  S
C2209      C2210   1.404       .  A
C2210      N2211   1.431       .  S
N2211      O2215   1.262       .  A
N2211      O2216   1.262   1_565  A
N2214      O2218   1.262       .  A
N2214      O2217   1.261       .  A
C2219      C2220   1.410   1_556  A
C2219      C2224   1.392       .  A
C2219      H2226   1.075       .  S
C2221      C2222   1.403   1_554  A
C2222      C2223   1.410       .  A
C2222      H2227   1.083       .  S
C2224      N2225   1.432       .  S
N2225      O2229   1.262       .  A
N2225      O2230   1.262       .  A
N2228      O2232   1.262       .  A
N2228      O2231   1.263       .  A
