geometry optimzed in LAMMPS
_audit_creation_date              2020-11-30 
_audit_creation_method            'lammps2cif' 
_symmetry_space_group_name_H-M    'P1' 
_symmetry_Int_Tables_number       1 
_symmetry_cell_setting            triclinic 
loop_ 
_symmetry_equiv_pos_as_xyz 
  x,y,z 
_cell_length_a                    39.868016535570625 
_cell_length_b                    38.1269981290585 
_cell_length_c                    37.8789526389185 
_cell_angle_alpha                 89.21799090946574 
_cell_angle_beta                  88.84954154084464 
_cell_angle_gamma                 90.97010969069052 
loop_ 
_atom_site_label 
_atom_site_type_symbol 
_atom_site_fract_x 
_atom_site_fract_y 
_atom_site_fract_z 
_atom_site_charge 
C1          C  0.72691724  0.48188988  0.98855810    -0.02520
C2          C  0.48030326  0.73764536  0.00459856    -0.02520
C3          C  0.98135881  0.49163912  0.74101373    -0.02520
C4          C  0.47693022  0.98368988  0.74279462    -0.02520
C5          C  0.72871681  0.98503570  0.49749729    -0.02520
C6          C  0.97501330  0.75419152  0.48750720    -0.02520
C7          C  0.22549287  0.49463346  0.99137380    -0.02520
O8          O  0.95014721  0.60303770  0.96859862    -0.72970
O9          O  0.02350471  0.62431125  0.03172030    -0.73950
O10         O  0.95452864  0.61219950  0.04087451    -0.62570
O11         O  0.01824468  0.61520482  0.96008097    -0.70980
O12         O  0.01223315  0.67276417  0.95337137    -0.70540
O13         O  0.94154494  0.66801070  0.03203038    -0.61790
O14         O  0.01329919  0.68134835  0.02996385    -0.74300
O15         O  0.94132560  0.65886959  0.95695459    -0.73080
Cu16       Cu  0.98699833  0.61210789  0.00058399     1.04560
Cu17       Cu  0.97694918  0.67268684  0.99284042     1.04330
C18         C  0.93446825  0.62637200  0.95172979     0.93220
C19         C  0.02920427  0.65520324  0.04260132     0.92360
C20         C  0.93694394  0.63876507  0.04849440     0.84510
C21         C  0.02491057  0.64380643  0.94354577     0.90780
C22         C  0.85723493  0.52419732  0.81994239     0.03100
C23         C  0.83476385  0.50598702  0.84359428    -0.13050
C24         C  0.81150039  0.52512985  0.86443865     0.00600
C25         C  0.81210293  0.56207067  0.86147362    -0.11580
C26         C  0.84027777  0.57883578  0.84642363     0.03090
C27         C  0.85643011  0.56128739  0.81900676    -0.11000
H28         H  0.83782436  0.47821863  0.84839822     0.08690
H29         H  0.79665942  0.57716434  0.87937382     0.06220
H30         H  0.87586792  0.57569797  0.80421202     0.06060
C31         C  0.97076000  0.48362051  0.24492946    -0.02520
C32         C  0.85431590  0.50118297  0.15824458     0.03100
C33         C  0.83550431  0.48459137  0.13188081    -0.13050
C34         C  0.82040493  0.50517852  0.10556631     0.00600
C35         C  0.82849705  0.54106039  0.10299517    -0.11580
C36         C  0.84824438  0.55801528  0.12851090     0.03090
C37         C  0.85574606  0.53797979  0.15878841    -0.11000
H38         H  0.83350539  0.45625010  0.13122859     0.08690
H39         H  0.82041265  0.55476618  0.07960828     0.06220
H40         H  0.86597387  0.54983411  0.18180153     0.06060
C41         C  0.13531783  0.51561016  0.87367983     0.03100
C42         C  0.12063410  0.49614090  0.84663163    -0.13050
C43         C  0.09814861  0.51268845  0.82386623     0.00600
C44         C  0.09228559  0.54866590  0.82699690    -0.11580
C45         C  0.10306303  0.56706236  0.85661838     0.03090
C46         C  0.12432591  0.54979066  0.88003080    -0.11000
H47         H  0.12604042  0.46857273  0.84376755     0.08690
H48         H  0.07571007  0.56101226  0.80842115     0.06220
H49         H  0.13217687  0.56241092  0.90396665     0.06060
O50         O  0.54705168  0.42792969  0.03767914    -0.72970
O51         O  0.46181651  0.47050906  0.03111467    -0.73950
O52         O  0.49398047  0.42492374  0.98747556    -0.62570
O53         O  0.51466354  0.47551459  0.07843538    -0.70980
O54         O  0.54021108  0.51611330  0.04441264    -0.70540
O55         O  0.51664393  0.46878455  0.95542348    -0.61790
O56         O  0.48482585  0.51489599  0.99994111    -0.74300
O57         O  0.57288234  0.46640264  0.00141400    -0.73080
Cu58       Cu  0.50386212  0.44800651  0.03460301     1.04560
Cu59       Cu  0.52981911  0.49312370  0.99915484     1.04330
C60         C  0.57344501  0.43978168  0.02225058     0.93220
C61         C  0.45946208  0.49946368  0.01490202     0.92360
C62         C  0.49842704  0.44111008  0.95774916     0.84510
C63         C  0.53127492  0.50433595  0.07489983     0.90780
C64         C  0.59013303  0.63928099  0.04045541     0.03100
C65         C  0.61327715  0.61893870  0.02048099    -0.13050
C66         C  0.63280109  0.59304989  0.03778486     0.00600
C67         C  0.62856462  0.58891184  0.07477846    -0.11580
C68         C  0.60073826  0.60290375  0.09292336     0.03090
C69         C  0.58471108  0.63083824  0.07627201    -0.11000
H70         H  0.61536193  0.62253305  0.99212313     0.08690
H71         H  0.64354436  0.56949135  0.08745298     0.06220
H72         H  0.56510074  0.64443511  0.09027649     0.06060
C73         C  0.48443206  0.24293002  0.98932689    -0.02520
O74         O  0.66083797  0.95260448  0.95117646    -0.72970
O75         O  0.65961533  0.01185530  0.04003917    -0.73950
O76         O  0.66570435  0.93841224  0.02686966    -0.62570
O77         O  0.65522371  0.02571372  0.96545791    -0.70980
O78         O  0.59994406  0.01871196  0.97176983    -0.70540
O79         O  0.61007729  0.93307676  0.02872155    -0.61790
O80         O  0.60435445  0.00310001  0.04288596    -0.74300
O81         O  0.60536128  0.94832012  0.95745718    -0.73080
Cu82       Cu  0.66269341  0.98224076  0.99574819     1.04560
Cu83       Cu  0.60335363  0.97548450  0.00032685     1.04330
C84         C  0.63219299  0.94265578  0.93989310     0.93220
C85         C  0.63105865  0.01624018  0.05526484     0.92360
C86         C  0.63882780  0.92250164  0.03767700     0.84510
C87         C  0.62539838  0.03581879  0.95953014     0.90780
C88         C  0.50232614  0.85884051  0.82194839     0.03100
C89         C  0.48973490  0.83209996  0.84521349    -0.13050
C90         C  0.50921815  0.82048271  0.87418018     0.00600
C91         C  0.53885963  0.84037056  0.88052989    -0.11580
C92         C  0.55260867  0.86431611  0.85595695     0.03090
C93         C  0.53554156  0.87070189  0.82496280    -0.11000
H94         H  0.46486065  0.82232548  0.84063085     0.08690
H95         H  0.55119206  0.83857689  0.90566790     0.06220
H96         H  0.54566446  0.88996264  0.80621179     0.06060
C97         C  0.48494608  0.99794923  0.25045983    -0.02520
C98         C  0.51173935  0.88358178  0.15416553     0.03100
C99         C  0.49097615  0.85821883  0.13870020    -0.13050
C100        C  0.50549886  0.83027563  0.12067963     0.00600
C101        C  0.54031223  0.82651174  0.12040182    -0.11580
C102        C  0.56133680  0.85473614  0.12942734     0.03090
C103        C  0.54654711  0.88302854  0.14734714    -0.11000
H104        H  0.46397163  0.86098122  0.13945835     0.08690
H105        H  0.55066950  0.80375179  0.10764710     0.06220
H106        H  0.56135812  0.90576838  0.15440178     0.06060
C107        C  0.49876356  0.15682346  0.87157952     0.03100
C108        C  0.48362486  0.13337832  0.84778899    -0.13050
C109        C  0.50052331  0.10264869  0.83770025     0.00600
C110        C  0.53109925  0.09501548  0.85373385    -0.11580
C111        C  0.54763028  0.11915096  0.87511517     0.03090
C112        C  0.53156639  0.15063930  0.88283741    -0.11000
H113        H  0.45905754  0.13902023  0.83787867     0.08690
H114        H  0.54216488  0.06968554  0.84914053     0.06220
H115        H  0.54299901  0.16875540  0.90097562     0.06060
O116        O  0.12356529  0.50548443  0.59538026    -0.72970
O117        O  0.09284915  0.42960251  0.53127442    -0.73950
O118        O  0.13055868  0.43258193  0.59354596    -0.62570
O119        O  0.08390633  0.50091723  0.53660275    -0.70980
O120        O  0.12881417  0.50945024  0.50188882    -0.70540
O121        O  0.17733682  0.43691546  0.56080961    -0.61790
O122        O  0.13919956  0.43787824  0.49893384    -0.74300
O123        O  0.16993832  0.51294430  0.56236134    -0.73080
Cu124      Cu  0.10659401  0.46674892  0.56575374     1.04560
Cu125      Cu  0.15590931  0.47462064  0.53029572     1.04330
C126        C  0.14974987  0.52349254  0.58625711     0.93220
C127        C  0.11029492  0.42379589  0.50321219     0.92360
C128        C  0.15959810  0.42173308  0.58534129     0.84510
C129        C  0.09777996  0.51476192  0.50927711     0.90780
C130        C  0.00467628  0.60565104  0.64469601     0.03100
C131        C  0.99280314  0.63496906  0.62590253    -0.13050
C132        C  0.01296560  0.65062777  0.59841005     0.00600
C133        C  0.04512267  0.63701887  0.59177459    -0.11580
C134        C  0.05815192  0.61020311  0.61270729     0.03090
C135        C  0.03624335  0.59238297  0.63599077    -0.11000
H136        H  0.96865108  0.64556180  0.63309370     0.08690
H137        H  0.06038901  0.64809129  0.57053764     0.06220
H138        H  0.04404790  0.56827892  0.64850151     0.06060
O139        O  0.43034227  0.11665940  0.53442519    -0.72970
O140        O  0.49473688  0.10752622  0.45519720    -0.73950
O141        O  0.49846728  0.10498541  0.52748446    -0.62570
O142        O  0.42646163  0.11867511  0.46137176    -0.70980
O143        O  0.43541975  0.17635835  0.45980361    -0.70540
O144        O  0.51127161  0.16175626  0.52980910    -0.61790
O145        O  0.50716456  0.16459917  0.45495454    -0.74300
O146        O  0.43995646  0.17419591  0.53627442    -0.73080
Cu147      Cu  0.46210569  0.11034006  0.49460190     1.04560
Cu148      Cu  0.47366453  0.17166930  0.49520149     1.04330
C149        C  0.42524063  0.14632934  0.54838862     0.93220
C150        C  0.51169510  0.13378587  0.44307474     0.92360
C151        C  0.51717561  0.12984439  0.53825237     0.84510
C152        C  0.41908544  0.14901007  0.45000150     0.90780
C153        C  0.58879767  0.99585512  0.65462823     0.03100
C154        C  0.62024794  0.98607951  0.64043145    -0.11970
C155        C  0.64207187  0.01221713  0.62485161     0.00600
C156        C  0.63281337  0.04758554  0.62862290    -0.11580
C157        C  0.59889092  0.05504448  0.63233682     0.03090
C158        C  0.57769830  0.03001750  0.64829159    -0.11000
H159        H  0.62557215  0.95847072  0.63871217     0.08690
H160        H  0.64936723  0.06841392  0.61860679     0.06220
H161        H  0.55148359  0.03608910  0.65192310     0.06060
C162        C  0.23570660  0.99230027  0.49192406    -0.02520
O163        O  0.08833809  0.99781488  0.47390628    -0.72970
O164        O  0.02951272  0.92708617  0.52293972    -0.73950
O165        O  0.02389069  0.97207822  0.46396449    -0.62570
O166        O  0.09357273  0.95181407  0.53712830    -0.70980
O167        O  0.07234125  0.99208464  0.57254826    -0.70540
O168        O  0.00439569  0.01215596  0.50074225    -0.61790
O169        O  0.00681976  0.96682176  0.55770710    -0.74300
O170        O  0.06858915  0.03873929  0.50928047    -0.73080
Cu171      Cu  0.06023766  0.96091709  0.49861321     1.04560
Cu172      Cu  0.03806341  0.00407419  0.53653009     1.04330
C173        C  0.08326234  0.03002417  0.48027938     0.93220
C174        C  0.00655185  0.93606639  0.54463657     0.92360
C175        C  0.00239071  0.99518637  0.47218046     0.84510
C176        C  0.09113848  0.96586178  0.56761125     0.90780
C177        C  0.85611904  0.81680649  0.51495670     0.03100
C178        C  0.82874321  0.83845203  0.50729622    -0.13050
C179        C  0.82614278  0.87173239  0.52348359     0.00600
C180        C  0.85413990  0.88416174  0.54225363    -0.11580
C181        C  0.88001508  0.86185559  0.55156029     0.03090
C182        C  0.87737963  0.82664709  0.54226495    -0.11000
H183        H  0.81119357  0.83020815  0.48754107     0.08690
H184        H  0.85688811  0.91187359  0.54768361     0.06220
H185        H  0.89797452  0.80998787  0.54842996     0.06060
C186        C  0.98356540  0.22927427  0.50052683    -0.02520
C187        C  0.84169968  0.07840604  0.44972361     0.03100
C188        C  0.86316040  0.06038567  0.42656567    -0.13050
C189        C  0.89598269  0.07119117  0.41980088     0.00600
C190        C  0.90488416  0.10524018  0.42878396    -0.11580
C191        C  0.88778380  0.12147827  0.45694687     0.03090
C192        C  0.85500402  0.10898725  0.46625412    -0.11000
H193        H  0.85788962  0.03327673  0.42072940     0.08690
H194        H  0.92947615  0.11505828  0.42082709     0.06220
H195        H  0.84129459  0.12162033  0.48728745     0.06060
C196        C  0.09160641  0.84582487  0.51878136     0.03100
C197        C  0.11997169  0.85519503  0.49669582    -0.13050
C198        C  0.15033161  0.86774878  0.51120922     0.00600
C199        C  0.15442409  0.86386996  0.54757601    -0.11580
C200        C  0.12660632  0.86275091  0.57018342     0.03090
C201        C  0.09549437  0.85361216  0.55528318    -0.11000
H202        H  0.11936252  0.85461557  0.46865086     0.08690
H203        H  0.17849815  0.86953679  0.55854481     0.06220
H204        H  0.07415923  0.85556966  0.57242418     0.06060
C205        C  0.35457648  0.01928760  0.66511912     0.03100
C206        C  0.35254975  0.05613589  0.66642124    -0.13050
C207        C  0.34176838  0.07532019  0.63694859     0.00600
C208        C  0.32363791  0.05697304  0.61151714    -0.11580
C209        C  0.32010216  0.02031238  0.61283996     0.03090
C210        C  0.33698296  0.00117410  0.63889118    -0.11000
H211        H  0.36601749  0.06962669  0.68690676     0.08690
H212        H  0.31502156  0.07040313  0.58820304     0.06220
H213        H  0.33878857  0.97295640  0.63691893     0.06060
C214        C  0.01933407  0.37514451  0.65054625     0.03100
C215        C  0.05458107  0.37554334  0.64827387    -0.13050
C216        C  0.07220871  0.34871557  0.63097144     0.00600
C217        C  0.05336619  0.32252730  0.61408188    -0.11580
C218        C  0.01820733  0.32381377  0.61328440     0.03090
C219        C  0.00114854  0.34936118  0.63265597    -0.11000
H220        H  0.06793039  0.39801549  0.65848888     0.08690
H221        H  0.06595195  0.30233890  0.59926951     0.06220
H222        H  0.97401603  0.35034058  0.63216069     0.06060
C223        C  0.16036087  0.12151464  0.48710143     0.03100
C224        C  0.15813066  0.12163138  0.45027438    -0.13050
C225        C  0.12979878  0.13505244  0.43398481     0.00600
C226        C  0.11178536  0.16051161  0.45249777    -0.11580
C227        C  0.11329395  0.16220595  0.48947112     0.03090
C228        C  0.13742616  0.14170266  0.50712493    -0.11000
H229        H  0.17427047  0.10439692  0.43552461     0.08690
H230        H  0.09159189  0.17376104  0.43930282     0.06220
H231        H  0.13784594  0.14074441  0.53568605     0.06060
C232        C  0.59101780  0.98628221  0.34222357     0.03100
C233        C  0.61038644  0.96816732  0.36684163    -0.13050
C234        C  0.61998029  0.98531392  0.39777877     0.00600
C235        C  0.60737235  0.01876510  0.40520180    -0.11580
C236        C  0.59143368  0.03837540  0.37908047     0.03090
C237        C  0.58563544  0.02215668  0.34691031    -0.11000
H238        H  0.61818682  0.94159550  0.36182737     0.08690
H239        H  0.61249079  0.03025166  0.43054847     0.06220
H240        H  0.57494021  0.03710767  0.32606615     0.06060
C241        C  0.98125565  0.58595216  0.35867965     0.03100
C242        C  0.97842606  0.62253077  0.36393359    -0.13050
C243        C  0.98657889  0.63684824  0.39709107     0.00600
C244        C  0.99754510  0.61439287  0.42389857    -0.11580
C245        C  0.00186318  0.57880082  0.41846557     0.03090
C246        C  0.99194595  0.56440806  0.38655014    -0.11000
H247        H  0.97191641  0.63952754  0.34211456     0.08690
H248        H  0.00557812  0.62540052  0.44863148     0.06220
H249        H  0.99556163  0.53665657  0.38215891     0.06060
C250        C  0.67155691  0.34004004  0.00419379     0.03100
C251        C  0.67624928  0.34038585  0.04099875    -0.13050
C252        C  0.64934802  0.32905350  0.06222367     0.00600
C253        C  0.63740654  0.29631740  0.05122719    -0.11580
C254        C  0.62719766  0.29340182  0.01592296     0.03090
C255        C  0.64534907  0.31699357  0.99141078    -0.11000
H256        H  0.69300176  0.35998696  0.05182903     0.08690
H257        H  0.63296185  0.27602831  0.07075702     0.06220
H258        H  0.63797136  0.31949261  0.96421412     0.06060
C259        C  0.50785565  0.14509985  0.11099567     0.03100
C260        C  0.49322090  0.14124876  0.14550010    -0.13050
C261        C  0.50684875  0.11750863  0.17016981     0.00600
C262        C  0.53774111  0.10197713  0.16241457    -0.11580
C263        C  0.55153024  0.10383104  0.12879047     0.03090
C264        C  0.53407821  0.12149458  0.10275723    -0.11000
H265        H  0.47136416  0.15498608  0.15389311     0.08690
H266        H  0.54980781  0.08551511  0.18175092     0.06220
H267        H  0.54182043  0.11627789  0.07589068     0.06060
C268        C  0.35678979  0.65140318  0.01301270     0.03100
C269        C  0.32074965  0.65106762  0.01440186    -0.13050
C270        C  0.30387930  0.61793840  0.02194085     0.00600
C271        C  0.32363759  0.59063261  0.03364646    -0.11580
C272        C  0.35469818  0.58865355  0.01724046     0.03090
C273        C  0.37152138  0.61921969  0.00716839    -0.11000
H274        H  0.30675300  0.67479473  0.01038670     0.08690
H275        H  0.31167612  0.56682431  0.04375640     0.06220
H276        H  0.39773370  0.61798823  0.99896184     0.06060
C277        C  0.12974676  0.52289562  0.10523352     0.03100
C278        C  0.12888784  0.55975658  0.10273832    -0.13050
C279        C  0.10916408  0.57875438  0.12596692     0.00600
C280        C  0.09834458  0.56234978  0.15751503    -0.11580
C281        C  0.09425023  0.52535361  0.15943352     0.03090
C282        C  0.11102102  0.50550686  0.13292688    -0.11000
H283        H  0.14005777  0.57325849  0.07994818     0.08690
H284        H  0.08623256  0.57859706  0.17705631     0.06220
H285        H  0.10743918  0.47742722  0.13177197     0.06060
C286        C  0.00362065  0.36673513  0.34083808     0.03100
C287        C  0.03170512  0.37930783  0.35899517    -0.13050
C288        C  0.04602459  0.35905990  0.38544153     0.00600
C289        C  0.03526711  0.32468464  0.39116798    -0.11580
C290        C  0.00607633  0.31194666  0.37571109     0.03090
C291        C  0.98997956  0.33309310  0.35012056    -0.11000
H292        H  0.04022515  0.40627808  0.35513317     0.08690
H293        H  0.04603789  0.31016961  0.41283767     0.06220
H294        H  0.96637990  0.32445748  0.33924832     0.06060
C295        C  0.36155833  0.02373680  0.32906197     0.03100
C296        C  0.33356551  0.00489654  0.34237864    -0.13050
C297        C  0.31037320  0.02155764  0.36453111     0.00600
C298        C  0.31354616  0.05795356  0.36994658    -0.11580
C299        C  0.34270573  0.07675097  0.35955051     0.03090
C300        C  0.36612638  0.05924189  0.33825585    -0.11000
H301        H  0.33130560  0.97704357  0.33776383     0.08690
H302        H  0.29473053  0.07070201  0.38594440     0.06220
H303        H  0.38988355  0.07185957  0.33143597     0.06060
C304        C  0.33893184  0.39555947  0.97276332     0.03100
C305        C  0.35658343  0.40859695  0.94256674    -0.13050
C306        C  0.38508443  0.39163683  0.92859299     0.00600
C307        C  0.39229852  0.35859053  0.94306712    -0.11580
C308        C  0.37913435  0.34731751  0.97582833     0.03090
C309        C  0.35169780  0.36571086  0.99086646    -0.11000
H310        H  0.34770706  0.43239422  0.93077470     0.08690
H311        H  0.41261083  0.34339551  0.93228002     0.06220
H312        H  0.34070686  0.35719876  0.01596527     0.06060
C313        C  0.02630121  0.18246576  0.52405626    -0.20330
C314        C  0.02089120  0.21494954  0.50616390    -0.06900
C315        C  0.05132131  0.23412913  0.49629570     0.13970
C316        C  0.08255127  0.21730435  0.49691470    -0.20390
C317        C  0.08565239  0.18213752  0.50709550    -0.06910
C318        C  0.05747171  0.16544541  0.52356494     0.13960
C319        C  0.05866333  0.12925453  0.54000783    -0.23740
H320        H  0.00555924  0.16806940  0.53618214     0.15240
H321        H  0.10456331  0.23087312  0.48580894     0.15270
C322        C  0.05362358  0.27153815  0.48273288    -0.23690
H323        H  0.05316991  0.13104982  0.56876683     0.05480
H324        H  0.08313746  0.11653448  0.53653141     0.08710
H325        H  0.03931431  0.11192061  0.52846628     0.08710
H326        H  0.02975282  0.28403406  0.47793361     0.08690
H327        H  0.06754530  0.27233320  0.45703988     0.08690
H328        H  0.06764350  0.28782431  0.50174945     0.05470
C329        C  0.96515717  0.16715632  0.48468808    -0.20330
C330        C  0.95563636  0.19925046  0.49986992    -0.06900
C331        C  0.91998795  0.20193208  0.50809553     0.13970
C332        C  0.89699977  0.17698773  0.49390826    -0.20390
C333        C  0.90851690  0.14580675  0.47918633    -0.06910
C334        C  0.94276752  0.13907241  0.48265464     0.13960
C335        C  0.95574630  0.10235405  0.48503493    -0.23740
H336        H  0.99053948  0.16255160  0.47579556     0.15240
H337        H  0.87024812  0.18148426  0.49537543     0.15270
C338        C  0.90409865  0.22776821  0.53299654    -0.23690
H339        H  0.97386879  0.10027179  0.50681861     0.05480
H340        H  0.96789690  0.09547749  0.45983275     0.08710
H341        H  0.93514200  0.08311697  0.49096866     0.08710
H342        H  0.92110201  0.24755276  0.54369495     0.08690
H343        H  0.89297666  0.21300810  0.55596621     0.08690
H344        H  0.88334119  0.24164540  0.52000275     0.05470
C345        C  0.98547911  0.29202469  0.52615721    -0.20330
C346        C  0.98099585  0.25542343  0.53224750    -0.06900
C347        C  0.98222709  0.24396011  0.56868311     0.13970
C348        C  0.99281202  0.26733738  0.59483194    -0.20390
C349        C  0.00056310  0.30232433  0.58698310    -0.06910
C350        C  0.99556792  0.31515593  0.55257693     0.13960
C351        C  0.00326081  0.35276461  0.54208438    -0.23740
H352        H  0.98372921  0.30327859  0.50009451     0.15240
H353        H  0.99586405  0.25786593  0.62169983     0.15270
C354        C  0.97261560  0.20782652  0.58259275    -0.23690
H355        H  0.98069663  0.36459552  0.53042312     0.05480
H356        H  0.02426501  0.35326696  0.52246048     0.08710
H357        H  0.01087566  0.36945994  0.56431268     0.08710
H358        H  0.99492382  0.19509061  0.59386809     0.08690
H359        H  0.96138158  0.19025641  0.56333827     0.08690
H360        H  0.95339329  0.21027382  0.60401705     0.05470
C361        C  0.00257024  0.23304761  0.43466793    -0.20330
C362        C  0.98098841  0.24566518  0.46178934    -0.06900
C363        C  0.95705880  0.27101045  0.45014868     0.13970
C364        C  0.96298727  0.28983021  0.41819201    -0.20390
C365        C  0.98973325  0.28200377  0.39546119    -0.06910
C366        C  0.00767115  0.25115312  0.40236350     0.13960
C367        C  0.03440423  0.23850835  0.37721323    -0.23740
H368        H  0.01757812  0.21011869  0.43929819     0.15240
H369        H  0.94794405  0.31245248  0.41201776     0.15270
C370        C  0.92461054  0.27852847  0.46922918    -0.23690
H371        H  0.02858867  0.21103457  0.36977662     0.05480
H372        H  0.05914155  0.23943513  0.39017227     0.08710
H373        H  0.03604663  0.25465755  0.35261556     0.08710
H374        H  0.92810055  0.28560340  0.49697923     0.08690
H375        H  0.90766716  0.25552427  0.46668603     0.08690
H376        H  0.91130688  0.30082195  0.45696459     0.05470
C377        C  0.11760050  0.05188419  0.42717296    -0.20330
C378        C  0.09093643  0.05671706  0.45189121    -0.06900
C379        C  0.06799889  0.08383914  0.44315965     0.13970
C380        C  0.07734290  0.10887723  0.41705428    -0.20390
C381        C  0.11137290  0.11207005  0.40827192    -0.06910
C382        C  0.12516993  0.07894509  0.40205502     0.13960
C383        C  0.14549917  0.07317614  0.36898993    -0.23740
H384        H  0.13063648  0.02726823  0.42628592     0.15240
H385        H  0.06080013  0.13042754  0.41135590     0.15270
C386        C  0.03313871  0.08657676  0.45759181    -0.23690
H387        H  0.17222404  0.07005597  0.37474109     0.05480
H388        H  0.14381496  0.09612031  0.35074909     0.08710
H389        H  0.13579393  0.04968061  0.35524667     0.08710
H390        H  0.02639870  0.06722446  0.47823117     0.08690
H391        H  0.01595903  0.08288345  0.43526643     0.08690
H392        H  0.02954199  0.11315422  0.46841351     0.05470
C393        C  0.14004921  0.94243350  0.59957622    -0.20330
C394        C  0.10525625  0.94705720  0.59809143    -0.06900
C395        C  0.08450957  0.92116163  0.61539243     0.13970
C396        C  0.09804811  0.88795959  0.62219134    -0.20390
C397        C  0.12890676  0.88046550  0.60577869    -0.06910
C398        C  0.15209375  0.90892825  0.60730904     0.13960
C399        C  0.18861256  0.90391930  0.61451171    -0.23740
H400        H  0.15742020  0.96387553  0.59424426     0.15240
H401        H  0.08149218  0.86663052  0.63104397     0.15270
C402        C  0.04790181  0.92643315  0.62335298    -0.23690
H403        H  0.20426215  0.91403146  0.59187615     0.05480
H404        H  0.19542123  0.91858806  0.63851079     0.08710
H405        H  0.19404357  0.87577089  0.61916955     0.08710
H406        H  0.03265625  0.90766138  0.60797129     0.08690
H407        H  0.04013054  0.95354332  0.61719272     0.08690
H408        H  0.04277711  0.92147340  0.65191473     0.05470
C409        C  0.97821567  0.02167792  0.41864274    -0.20330
C410        C  0.97357557  0.00267404  0.45043639    -0.06900
C411        C  0.94159368  0.00035453  0.46671686     0.13970
C412        C  0.91623408  0.02078431  0.45370158    -0.20390
C413        C  0.92148364  0.04353498  0.42440726    -0.06910
C414        C  0.95218443  0.04223546  0.40519155     0.13960
C415        C  0.95764855  0.06248872  0.37112830    -0.23740
H416        H  0.00291328  0.02295570  0.40615116     0.15240
H417        H  0.89291130  0.02116871  0.46886041     0.15270
C418        C  0.93438878  0.97809105  0.49939461    -0.23690
H419        H  0.98251911  0.05693861  0.35890344     0.05480
H420        H  0.95663026  0.09107887  0.37552086     0.08710
H421        H  0.93802236  0.05484705  0.35218480     0.08710
H422        H  0.94975968  0.98681367  0.52178077     0.08690
H423        H  0.93960721  0.95043208  0.49339120     0.08690
H424        H  0.90768958  0.97927142  0.50820658     0.05470
C425        C  0.95717215  0.91390510  0.58127215    -0.20330
C426        C  0.97724110  0.91218324  0.55024366    -0.06900
C427        C  0.96583542  0.89158838  0.52182637     0.13970
C428        C  0.93497452  0.87453582  0.52497586    -0.20390
C429        C  0.91427042  0.87709905  0.55485211    -0.06910
C430        C  0.92564677  0.89637584  0.58387197     0.13960
C431        C  0.90462261  0.89838955  0.61712271    -0.23740
H432        H  0.96564207  0.92980997  0.60295172     0.15240
H433        H  0.92607357  0.86033871  0.50281432     0.15270
C434        C  0.98379061  0.88983553  0.48629030    -0.23690
H435        H  0.89981179  0.87152944  0.62797907     0.05480
H436        H  0.91739038  0.91407429  0.63754862     0.08710
H437        H  0.88031108  0.91078318  0.61136280     0.08710
H438        H  0.00875509  0.87819184  0.48922065     0.08690
H439        H  0.98646486  0.91640334  0.47430077     0.08690
H440        H  0.97003691  0.87346200  0.46717595     0.05470
C441        C  0.23195221  0.05933509  0.49395204    -0.20330
C442        C  0.21509557  0.02665470  0.50062587    -0.06900
C443        C  0.18146612  0.02929721  0.51459558     0.13970
C444        C  0.16490557  0.06186953  0.51353520    -0.20390
C445        C  0.18115651  0.09290636  0.50205333    -0.06910
C446        C  0.21573836  0.09178213  0.49436673     0.13960
C447        C  0.23534403  0.12484383  0.48481775    -0.23740
H448        H  0.25781432  0.05975620  0.48585354     0.15240
H449        H  0.13839338  0.06276740  0.52039622     0.15270
C450        C  0.16126756  0.99997733  0.53137554    -0.23690
H451        H  0.26236680  0.11961295  0.48014844     0.05480
H452        H  0.23318636  0.14374961  0.50674644     0.08710
H453        H  0.22560874  0.13699270  0.46039599     0.08710
H454        H  0.17566378  0.97651724  0.53756861     0.08690
H455        H  0.14040890  0.99289091  0.51389568     0.08690
H456        H  0.15048877  0.00928414  0.55673364     0.05470
C457        C  0.18581737  0.95330172  0.47389296    -0.20330
C458        C  0.21637174  0.95559157  0.49235554    -0.06900
C459        C  0.22914724  0.92229355  0.50439624     0.13970
C460        C  0.20847442  0.89196386  0.50334442    -0.20390
C461        C  0.17496853  0.89272476  0.49277381    -0.06910
C462        C  0.16465868  0.92329304  0.47485077     0.13960
C463        C  0.13116084  0.92532006  0.45727010    -0.23740
H464        H  0.17668600  0.97608288  0.46069393     0.15240
H465        H  0.21775254  0.86755463  0.51418111     0.15270
C466        C  0.26360220  0.91483964  0.51877313    -0.23690
H467        H  0.12765519  0.95113586  0.44409119     0.05480
H468        H  0.11042961  0.92144468  0.47691914     0.08710
H469        H  0.12954086  0.90518446  0.43648702     0.08710
H470        H  0.26086489  0.90575784  0.54669240     0.08690
H471        H  0.28235867  0.93607270  0.51798342     0.08690
H472        H  0.27509801  0.89343295  0.50329598     0.05470
C473        C  0.25072229  0.98578923  0.55623910    -0.20330
C474        C  0.26268339  0.99462521  0.52156426    -0.06900
C475        C  0.29676375  0.00821409  0.51858200     0.13970
C476        C  0.31638766  0.00992117  0.54899787    -0.20390
C477        C  0.30292087  0.00354389  0.58286031    -0.06910
C478        C  0.26992877  0.99058513  0.58648837     0.13960
C479        C  0.25433975  0.98351132  0.62249372    -0.23740
H480        H  0.22544349  0.97587177  0.56005291     0.15240
H481        H  0.34175491  0.02068619  0.54680072     0.15270
C482        C  0.31427858  0.02497660  0.48646578    -0.23690
H483        H  0.22792429  0.97410870  0.62081394     0.05480
H484        H  0.25450097  0.00793654  0.63812385     0.08710
H485        H  0.26880190  0.96315675  0.63650137     0.08710
H486        H  0.29873112  0.03115972  0.46378814     0.08690
H487        H  0.33519669  0.00814361  0.47760353     0.08690
H488        H  0.32515150  0.05085764  0.49378523     0.05470
C489        C  0.27738091  0.97182998  0.44458149    -0.20330
C490        C  0.24989640  0.99344465  0.45306189    -0.06900
C491        C  0.23620330  0.01259911  0.42394215     0.13970
C492        C  0.25450679  0.01576329  0.39210883    -0.20390
C493        C  0.28634652  0.00181197  0.38812576    -0.06910
C494        C  0.29696923  0.97725912  0.41365737     0.13960
C495        C  0.33027498  0.95926329  0.41058800    -0.23740
H496        H  0.28662372  0.95404400  0.46411152     0.15240
H497        H  0.24536864  0.03268844  0.37122789     0.15270
C498        C  0.20313934  0.03080656  0.42285340    -0.23690
H499        H  0.33511974  0.94246989  0.43406756     0.05480
H500        H  0.35099421  0.97903978  0.40832697     0.08710
H501        H  0.33055812  0.94203553  0.38724821     0.08710
H502        H  0.20821663  0.05916694  0.41814657     0.08690
H503        H  0.18649032  0.02850402  0.44586892     0.08690
H504        H  0.18861677  0.01972343  0.40080470     0.05470
C505        C  0.34224879  0.11329812  0.41424481    -0.20330
C506        C  0.35272453  0.10977846  0.37860947    -0.06900
C507        C  0.37797793  0.13362370  0.36542968     0.13970
C508        C  0.39772408  0.15236360  0.38945227    -0.20390
C509        C  0.39076399  0.15007044  0.42582678    -0.06910
C510        C  0.36050862  0.13386292  0.43762251     0.13960
C511        C  0.34959711  0.13501224  0.47600489    -0.23740
H512        H  0.32219450  0.09712589  0.42555025     0.15240
H513        H  0.42019182  0.16620428  0.37999328     0.15270
C514        C  0.38500909  0.13951033  0.32658184    -0.23690
H515        H  0.32511137  0.12130854  0.48082931     0.05480
H516        H  0.34688702  0.16273956  0.48399481     0.08710
H517        H  0.36824973  0.12224515  0.49305279     0.08710
H518        H  0.36667410  0.12537257  0.31005564     0.08690
H519        H  0.41081208  0.13103067  0.31967826     0.08690
H520        H  0.38301037  0.16789115  0.32016346     0.05470
C521        C  0.57023350  0.12322197  0.42567565    -0.20330
C522        C  0.53677585  0.12641280  0.41555479    -0.06900
C523        C  0.52562096  0.10819833  0.38597380     0.13970
C524        C  0.54489918  0.08089541  0.37290476    -0.20390
C525        C  0.57670890  0.07354300  0.38649874    -0.06910
C526        C  0.59095686  0.09795265  0.41014833     0.13960
C527        C  0.62743639  0.09797652  0.41959285    -0.23740
H528        H  0.57937487  0.13830937  0.44766568     0.15240
H529        H  0.53358707  0.06382842  0.35398931     0.15270
C530        C  0.49154312  0.11467945  0.37087639    -0.23690
H531        H  0.63004750  0.09098829  0.44794944     0.05480
H532        H  0.64202702  0.07963228  0.40312090     0.08710
H533        H  0.63850888  0.12456191  0.41470095     0.08710
H534        H  0.48010824  0.13862082  0.38191309     0.08690
H535        H  0.47443186  0.09216840  0.37707230     0.08690
H536        H  0.49387472  0.11845284  0.34180425     0.05470
C537        C  0.55996037  0.08709252  0.54836676    -0.20330
C538        C  0.54625383  0.11887756  0.55889332    -0.06900
C539        C  0.55524573  0.13310200  0.59164798     0.13970
C540        C  0.57441407  0.11269035  0.61495584    -0.20390
C541        C  0.58393147  0.07855018  0.60592809    -0.06910
C542        C  0.57658635  0.06575225  0.57187302     0.13960
C543        C  0.58264468  0.02877911  0.55962236    -0.23740
H544        H  0.55401440  0.07669456  0.52262365     0.15240
H545        H  0.58046431  0.12257797  0.64078652     0.15270
C546        C  0.54408506  0.16895220  0.60222981    -0.23690
H547        H  0.55838384  0.01636017  0.55238060     0.05480
H548        H  0.59366312  0.01154998  0.57955262     0.08710
H549        H  0.59935318  0.02940921  0.53580518     0.08710
H550        H  0.51638458  0.17009892  0.60245427     0.08690
H551        H  0.55442444  0.18877305  0.58302741     0.08690
H552        H  0.55292927  0.17583126  0.62891767     0.05470
C553        C  0.36874410  0.14904378  0.57602145    -0.20330
C554        C  0.40343715  0.14632310  0.58005615    -0.06900
C555        C  0.41562594  0.13149932  0.61138607     0.13970
C556        C  0.39340316  0.11335392  0.63439695    -0.20390
C557        C  0.35911866  0.10939861  0.62640627    -0.06910
C558        C  0.34628750  0.13196413  0.59993874     0.13960
C559        C  0.30929430  0.13750741  0.59569848    -0.23740
H560        H  0.35917837  0.16202923  0.55276671     0.15240
H561        H  0.40412685  0.09877753  0.65591436     0.15270
C562        C  0.45257331  0.13228271  0.61892869    -0.23690
H563        H  0.30399574  0.16590505  0.59779395     0.05480
H564        H  0.29417944  0.12348143  0.61656618     0.08710
H565        H  0.30136489  0.12842925  0.56935215     0.08710
H566        H  0.46132780  0.16000808  0.61963890     0.08690
H567        H  0.46681733  0.11818252  0.59820551     0.08690
H568        H  0.45799697  0.11995240  0.64485864     0.05470
C569        C  0.05256912  0.54375492  0.42762037    -0.20330
C570        C  0.02412172  0.55953275  0.44255490    -0.06900
C571        C  0.02112111  0.56178525  0.47972081     0.13970
C572        C  0.04739236  0.55006984  0.50050037    -0.20390
C573        C  0.07583401  0.53425046  0.48543897    -0.06910
C574        C  0.07824538  0.53076076  0.44844602     0.13960
C575        C  0.10700341  0.51227058  0.43064765    -0.23740
H576        H  0.05516095  0.54197408  0.39934338     0.15240
H577        H  0.04485767  0.55182503  0.52899562     0.15270
C578        C  0.99017153  0.57506431  0.49844485    -0.23690
H579        H  0.10424054  0.51141395  0.40154655     0.05480
H580        H  0.10809875  0.48477257  0.44055876     0.08710
H581        H  0.13095936  0.52628251  0.43597743     0.08710
H582        H  0.96952597  0.58076142  0.48017384     0.08690
H583        H  0.99656539  0.59923542  0.51310023     0.08690
H584        H  0.98053025  0.55478241  0.51755914     0.05470
C585        C  0.06043900  0.40015717  0.47377177    -0.20330
C586        C  0.09550370  0.40395516  0.47377979    -0.06900
C587        C  0.11445696  0.39305870  0.44367137     0.13970
C588        C  0.09763542  0.37901509  0.41474712    -0.20390
C589        C  0.06271709  0.37618868  0.41489096    -0.06910
C590        C  0.04382500  0.38645592  0.44487420     0.13960
C591        C  0.00601835  0.38340515  0.44732218    -0.23740
H592        H  0.04551951  0.40903791  0.49605344     0.15240
H593        H  0.11171445  0.37024801  0.39182452     0.15270
C594        C  0.15222106  0.39604037  0.44122593    -0.23690
H595        H  0.99523075  0.40972798  0.45145823     0.05480
H596        H  0.99840264  0.36591698  0.46965452     0.08710
H597        H  0.99461863  0.37199868  0.42371975     0.08710
H598        H  0.16345987  0.38261370  0.46417852     0.08690
H599        H  0.16028909  0.42403261  0.44011666     0.08690
H600        H  0.16238247  0.38370149  0.41695472     0.05470
C601        C  0.11030104  0.60064690  0.57608463    -0.20330
C602        C  0.09391375  0.59936273  0.60934467    -0.06900
C603        C  0.11240861  0.58658294  0.63857917     0.13970
C604        C  0.14070417  0.56616663  0.63194630    -0.20390
C605        C  0.15125991  0.56011134  0.59724610    -0.06910
C606        C  0.14085127  0.58380451  0.57095323     0.13960
C607        C  0.15977168  0.58817150  0.53630255    -0.23740
H608        H  0.09891787  0.61287803  0.55349717     0.15240
H609        H  0.15130372  0.55093401  0.65323066     0.15270
C610        C  0.10378569  0.59490598  0.67643014    -0.23690
H611        H  0.18582774  0.59718071  0.54138307     0.05480
H612        H  0.14800608  0.60802672  0.51898424     0.08710
H613        H  0.16060511  0.56330112  0.52172855     0.08710
H614        H  0.08198309  0.57930899  0.68657926     0.08690
H615        H  0.09929884  0.62342758  0.67874722     0.08690
H616        H  0.12489143  0.58860377  0.69401313     0.05470
C617        C  0.16131015  0.38407706  0.63674380    -0.20330
C618        C  0.16764570  0.38716981  0.60019312    -0.06900
C619        C  0.15361835  0.36056902  0.57942974     0.13970
C620        C  0.12279053  0.34538428  0.59054164    -0.20390
C621        C  0.10943664  0.35216526  0.62453270    -0.06910
C622        C  0.13158988  0.36711991  0.64938417     0.13960
C623        C  0.12493193  0.36426493  0.68867275    -0.23740
H624        H  0.17573831  0.40022250  0.65443862     0.15240
H625        H  0.10821709  0.33134257  0.57132734     0.15270
C626        C  0.16618598  0.35462819  0.54237493    -0.23690
H627        H  0.14656779  0.37458599  0.70362667     0.05480
H628        H  0.12109235  0.33624488  0.69627984     0.08710
H629        H  0.10273462  0.37909584  0.69724626     0.08710
H630        H  0.18924069  0.37050675  0.53626291     0.08690
H631        H  0.14655991  0.36177325  0.52334661     0.08690
H632        H  0.17216359  0.32650809  0.53919073     0.05470
C633        C  0.50877397  0.09830290  0.23148356    -0.20330
C634        C  0.48877460  0.10372181  0.20230074    -0.06900
C635        C  0.46045460  0.08161445  0.19902852     0.13970
C636        C  0.45851306  0.05012530  0.21896249    -0.20390
C637        C  0.48599601  0.03808068  0.23892833    -0.06910
C638        C  0.50976645  0.06530234  0.24823982     0.13960
C639        C  0.53667463  0.06345171  0.27516195    -0.23740
H640        H  0.52859485  0.11744438  0.23632447     0.15240
H641        H  0.43753444  0.03264492  0.21436118     0.15270
C642        C  0.43424571  0.08901942  0.17196880    -0.23690
H643        H  0.53440562  0.08586053  0.29345242     0.05480
H644        H  0.56185548  0.06528439  0.26222127     0.08710
H645        H  0.53464392  0.04013503  0.29151970     0.08710
H646        H  0.44553142  0.08844030  0.14497060     0.08690
H647        H  0.42338177  0.11518701  0.17673932     0.08690
H648        H  0.41347380  0.06923280  0.17329914     0.05470
C649        C  0.47616003  0.93532291  0.23033684    -0.20330
C650        C  0.48186928  0.97075661  0.21915969    -0.06900
C651        C  0.49024716  0.97588612  0.18208201     0.13970
C652        C  0.49943034  0.94669871  0.16171323    -0.20390
C653        C  0.49743682  0.91247976  0.17516871    -0.06910
C654        C  0.48401644  0.90657070  0.20926322     0.13960
C655        C  0.47999445  0.86992606  0.22441001    -0.23740
H656        H  0.46747734  0.92981868  0.25706908     0.15240
H657        H  0.50816625  0.95041658  0.13459721     0.15270
C658        C  0.48796597  0.00991960  0.16132824    -0.23690
H659        H  0.47008224  0.86994333  0.25202393     0.05480
H660        H  0.50465849  0.85682113  0.22433859     0.08710
H661        H  0.46218100  0.85453448  0.20835831     0.08710
H662        H  0.50347863  0.03140753  0.17177538     0.08690
H663        H  0.46132209  0.01737152  0.15973392     0.08690
H664        H  0.49669511  0.00724324  0.13347518     0.05470
C665        C  0.42083053  0.01001380  0.32953757    -0.20330
C666        C  0.39050405  0.00567570  0.31273178    -0.06900
C667        C  0.39037252  0.99155979  0.27868733     0.13970
C668        C  0.42122918  0.98511981  0.26129640    -0.20390
C669        C  0.45256222  0.99603868  0.27542030    -0.06910
C670        C  0.45119114  0.00996622  0.31060755     0.13960
C671        C  0.47890846  0.03002394  0.32820417    -0.23740
H672        H  0.42009061  0.01971396  0.35635885     0.15240
H673        H  0.42017641  0.97512557  0.23477387     0.15270
C674        C  0.35793428  0.98519324  0.25996816    -0.23690
H675        H  0.48297777  0.05525323  0.31407454     0.05480
H676        H  0.50192777  0.01521639  0.33146801     0.08710
H677        H  0.47213826  0.03701072  0.35571172     0.08710
H678        H  0.34406081  0.01009653  0.25762433     0.08690
H679        H  0.34227447  0.96562046  0.27504143     0.08690
H680        H  0.36226391  0.97496203  0.23297639     0.05470
C681        C  0.51284669  0.96147523  0.29992538    -0.20330
C682        C  0.51690829  0.98365745  0.26967066    -0.06900
C683        C  0.55090522  0.98747438  0.25659062     0.13970
C684        C  0.57760482  0.98071326  0.27939587    -0.20390
C685        C  0.57154936  0.96907413  0.31413002    -0.06910
C686        C  0.53940702  0.95521523  0.32278533     0.13960
C687        C  0.53138247  0.93724191  0.35765609    -0.23740
H688        H  0.48824668  0.95192767  0.30835003     0.15240
H689        H  0.60283833  0.98917265  0.27165902     0.15270
C690        C  0.56094863  0.00122024  0.22058498    -0.23690
H691        H  0.51964336  0.91116410  0.35288543     0.05480
H692        H  0.51352006  0.95328890  0.37314417     0.08710
H693        H  0.55391992  0.93287523  0.37359712     0.08710
H694        H  0.53993185  0.01175091  0.20637666     0.08690
H695        H  0.57217750  0.97966439  0.20524292     0.08690
H696        H  0.57981190  0.02282927  0.22240281     0.05470
C697        C  0.58244327  0.04789664  0.12967663    -0.20330
C698        C  0.58172794  0.08342830  0.11951635    -0.06900
C699        C  0.60785628  0.09743463  0.09734304     0.13970
C700        C  0.62995210  0.07440628  0.08067376    -0.20390
C701        C  0.62649444  0.03816279  0.08622115    -0.06910
C702        C  0.60505712  0.02517709  0.11365016     0.13960
C703        C  0.60394751  0.98665909  0.12350371    -0.23740
H704        H  0.56338281  0.03709347  0.14763925     0.15240
H705        H  0.64712276  0.08444530  0.06024541     0.15270
C706        C  0.61221898  0.13615116  0.08963151    -0.23690
H707        H  0.58534942  0.98086452  0.14502391     0.05480
H708        H  0.62902079  0.97868257  0.13259316     0.08710
H709        H  0.59683913  0.97036110  0.10073505     0.08710
H710        H  0.59496723  0.15233482  0.10562418     0.08690
H711        H  0.60796248  0.14155075  0.06121929     0.08690
H712        H  0.63818674  0.14454906  0.09596831     0.05470
C713        C  0.62204680  0.06493275  0.90133947    -0.20330
C714        C  0.61864807  0.06707393  0.93809368    -0.06900
C715        C  0.59930098  0.09387808  0.95293305     0.13970
C716        C  0.57907974  0.11392321  0.93096647    -0.20390
C717        C  0.57814830  0.10807809  0.89444371    -0.06910
C718        C  0.60266904  0.08597544  0.87918064     0.13960
C719        C  0.60827018  0.08323794  0.83986935    -0.23740
H720        H  0.63773779  0.04490502  0.88991117     0.15240
H721        H  0.56157854  0.13155843  0.94295167     0.15270
C722        C  0.59845016  0.09962453  0.99227463    -0.23690
H723        H  0.63510923  0.08879979  0.83325399     0.05480
H724        H  0.59333953  0.10242963  0.82485924     0.08710
H725        H  0.60173965  0.05630433  0.83119800     0.08710
H726        H  0.62432125  0.10492895  0.00134020     0.08690
H727        H  0.58795987  0.07616394  0.00650607     0.08690
H728        H  0.58292985  0.12235076  0.99956083     0.05470
C729        C  0.64140097  0.89974126  0.09806713    -0.20330
C730        C  0.63885048  0.89237420  0.06203414    -0.06900
C731        C  0.62069572  0.86233984  0.05201552     0.13970
C732        C  0.59866239  0.84613914  0.07651221    -0.20390
C733        C  0.59507254  0.85896296  0.11122367    -0.06910
C734        C  0.62024426  0.88246263  0.12313065     0.13960
C735        C  0.62469343  0.89044545  0.16157465    -0.23740
H736        H  0.65684364  0.92174939  0.10620644     0.15240
H737        H  0.58145568  0.82671641  0.06643669     0.15270
C738        C  0.62124200  0.85037713  0.01420548    -0.23690
H739        H  0.65087729  0.88479527  0.16898381     0.05480
H740        H  0.60784709  0.87399590  0.17889431     0.08710
H741        H  0.61982787  0.91857261  0.16642762     0.08710
H742        H  0.64737203  0.84419355  0.00614807     0.08690
H743        H  0.61166693  0.87113426  0.99642849     0.08690
H744        H  0.60548764  0.82640713  0.01073637     0.05470
C745        C  0.61021737  0.87135367  0.87977317    -0.20330
C746        C  0.58122519  0.88706575  0.86646513    -0.06900
C747        C  0.57737540  0.92371785  0.87004189     0.13970
C748        C  0.60272503  0.94339371  0.88566267    -0.20390
C749        C  0.62730231  0.92666809  0.90533761    -0.06910
C750        C  0.63272513  0.89066940  0.90046444     0.13960
C751        C  0.66048438  0.87242086  0.91927695    -0.23740
H752        H  0.61321169  0.84328883  0.87726656     0.15240
H753        H  0.59887150  0.97119393  0.88973020     0.15270
C754        C  0.54438412  0.94139598  0.86411656    -0.23690
H755        H  0.66090562  0.84401047  0.91321482     0.05480
H756        H  0.65720888  0.87516801  0.94823061     0.08710
H757        H  0.68499347  0.88440088  0.91091623     0.08710
H758        H  0.52465992  0.92873712  0.88126817     0.08690
H759        H  0.53715154  0.93944662  0.83644841     0.08690
H760        H  0.54532281  0.96974005  0.87051982     0.05470
C761        C  0.52097336  0.17569854  0.05373176    -0.20330
C762        C  0.49833756  0.17199322  0.08249115    -0.06900
C763        C  0.46943402  0.19381777  0.08121034     0.13970
C764        C  0.46528917  0.21708310  0.05187686    -0.20390
C765        C  0.48586897  0.21557660  0.02092202    -0.06910
C766        C  0.51271417  0.19137921  0.02204830     0.13960
C767        C  0.53508419  0.18157202  0.99128534    -0.23740
H768        H  0.54600806  0.16550733  0.05463482     0.15240
H769        H  0.44524590  0.23571545  0.05311907     0.15270
C770        C  0.44295032  0.19428306  0.10997745    -0.23690
H771        H  0.53312364  0.15273595  0.98856000     0.05480
H772        H  0.56154965  0.18922643  0.99635858     0.08710
H773        H  0.52826555  0.19274910  0.96576461     0.08710
H774        H  0.45375130  0.20500720  0.13441676     0.08690
H775        H  0.43211606  0.16751569  0.11425571     0.08690
H776        H  0.42180319  0.21149342  0.10300705     0.05470
C777        C  0.47445864  0.23767560  0.92194290    -0.20330
C778        C  0.47357565  0.22151378  0.95566803    -0.06900
C779        C  0.46193229  0.18531818  0.95600854     0.13970
C780        C  0.46656676  0.16530169  0.92571680    -0.20390
C781        C  0.47870828  0.18037682  0.89429094    -0.06910
C782        C  0.47957909  0.21731231  0.89122059     0.13960
C783        C  0.48865742  0.23484740  0.85651566    -0.23740
H784        H  0.47557550  0.26600881  0.92005360     0.15240
H785        H  0.46282000  0.13704166  0.92732265     0.15270
C786        C  0.44377004  0.16570603  0.98592907    -0.23690
H787        H  0.48861188  0.26387625  0.85858521     0.05480
H788        H  0.47022719  0.22695048  0.83640219     0.08710
H789        H  0.51411232  0.22687703  0.84771985     0.08710
H790        H  0.43311588  0.18241109  0.00650314     0.08690
H791        H  0.46055218  0.14604331  0.99783537     0.08690
H792        H  0.42165559  0.15146257  0.97539711     0.05470
C793        C  0.53260628  0.26813471  0.02448883    -0.20330
C794        C  0.52246293  0.25917755  0.99011268    -0.06900
C795        C  0.54956878  0.26121589  0.96383327     0.13970
C796        C  0.58293547  0.27079677  0.97362159    -0.20390
C797        C  0.59240813  0.27658171  0.00859487    -0.06910
C798        C  0.56598390  0.27211187  0.03484865     0.13960
C799        C  0.57048916  0.27157221  0.07455790    -0.23740
H800        H  0.51325858  0.26964331  0.04488367     0.15240
H801        H  0.60232087  0.27353822  0.95332215     0.15270
C802        C  0.54571195  0.25572082  0.92495527    -0.23690
H803        H  0.54650786  0.26714859  0.08953503     0.05480
H804        H  0.58055035  0.29679049  0.08430265     0.08710
H805        H  0.58624585  0.24909170  0.08208547     0.08710
H806        H  0.53768051  0.22855716  0.91981836     0.08690
H807        H  0.56972698  0.25908469  0.90982483     0.08690
H808        H  0.52913803  0.27585965  0.91390907     0.05470
C809        C  0.42183500  0.26109539  0.99420240    -0.20330
C810        C  0.45625684  0.27211941  0.99468013    -0.06900
C811        C  0.46148411  0.30961013  0.99643635     0.13970
C812        C  0.43386315  0.33223926  0.99972253    -0.20390
C813        C  0.40077198  0.32103956  0.99437123    -0.06910
C814        C  0.39470584  0.28470065  0.99265581     0.13960
C815        C  0.35959577  0.27093687  0.98752517    -0.23740
H816        H  0.41581416  0.23365582  0.99211334     0.15240
H817        H  0.43837249  0.36037571  0.00059985     0.15270
C818        C  0.49463599  0.32843209  0.99055638    -0.23690
H819        H  0.35863131  0.24182994  0.98679017     0.05480
H820        H  0.34975747  0.28121925  0.96227187     0.08710
H821        H  0.34314943  0.27953110  0.00966159     0.08710
H822        H  0.50734577  0.31926790  0.96619266     0.08690
H823        H  0.51020638  0.32671867  0.01421958     0.08690
H824        H  0.49142388  0.35695912  0.98639002     0.05470
C825        C  0.44936420  0.45765582  0.92449658    -0.20330
C826        C  0.47518452  0.43365856  0.92888697    -0.06900
C827        C  0.47284518  0.40147787  0.91148611     0.13970
C828        C  0.44152379  0.39123803  0.89791430    -0.20390
C829        C  0.41242036  0.41049206  0.90671471    -0.06910
C830        C  0.41816509  0.44675942  0.91187892     0.13960
C831        C  0.39252271  0.47411970  0.90421602    -0.23740
H832        H  0.45299383  0.48429570  0.93287166     0.15240
H833        H  0.43895239  0.36564137  0.88612573     0.15270
C834        C  0.50312649  0.37899733  0.90663289    -0.23690
H835        H  0.40433258  0.49562325  0.88798996     0.05480
H836        H  0.38275818  0.48523911  0.92926066     0.08710
H837        H  0.37169188  0.46328030  0.88848206     0.08710
H838        H  0.52209018  0.39335980  0.88985726     0.08690
H839        H  0.49668834  0.35388335  0.89365784     0.08690
H840        H  0.51452627  0.37309664  0.93233529     0.05470
C841        C  0.41808380  0.53105085  0.98186314    -0.20330
C842        C  0.42689012  0.51481041  0.01344239    -0.06900
C843        C  0.40491816  0.51452565  0.04322009     0.13970
C844        C  0.37703718  0.53566078  0.04216300    -0.20390
C845        C  0.37103258  0.55568790  0.01195196    -0.06910
C846        C  0.38905268  0.55011979  0.98013176     0.13960
C847        C  0.37936589  0.56608188  0.94504113    -0.23740
H848        H  0.43473445  0.53058428  0.95904798     0.15240
H849        H  0.36228492  0.53959406  0.06609944     0.15270
C850        C  0.41212168  0.49504014  0.07711367    -0.23690
H851        H  0.39618833  0.55740140  0.92324561     0.05480
H852        H  0.38066583  0.59507017  0.94501276     0.08710
H853        H  0.35361569  0.55764072  0.93855180     0.08710
H854        H  0.43690036  0.50342476  0.08716608     0.08690
H855        H  0.41189620  0.46636725  0.07243029     0.08690
H856        H  0.39295195  0.50003540  0.09804879     0.05470
C857        C  0.57253902  0.51927242  0.12013476    -0.20330
C858        C  0.54115761  0.52535570  0.10527261    -0.06900
C859        C  0.52655987  0.55836672  0.11023400     0.13970
C860        C  0.54670137  0.58592749  0.12267173    -0.20390
C861        C  0.58194220  0.58220868  0.12201667    -0.06910
C862        C  0.59252511  0.54797353  0.13072674     0.13960
C863        C  0.62297035  0.54213151  0.15282496    -0.23740
H864        H  0.58252848  0.49301513  0.12055162     0.15240
H865        H  0.53577103  0.61154769  0.12510012     0.15270
C866        C  0.49097590  0.56506370  0.09967638    -0.23690
H867        H  0.62766904  0.51369707  0.15653702     0.05480
H868        H  0.61850216  0.55359558  0.17924433     0.08710
H869        H  0.64598289  0.55462566  0.14141067     0.08710
H870        H  0.47367320  0.54730674  0.11504982     0.08690
H871        H  0.48797924  0.56025339  0.07105787     0.08690
H872        H  0.48368893  0.59253870  0.10486586     0.05470
C873        C  0.62210877  0.42182327  0.05716383    -0.20330
C874        C  0.60236923  0.41780714  0.02669869    -0.06900
C875        C  0.59474405  0.38393803  0.01569623     0.13970
C876        C  0.59784886  0.35733765  0.04030840    -0.20390
C877        C  0.62429658  0.35836850  0.06415580    -0.06910
C878        C  0.63455775  0.39211682  0.07494625     0.13960
C879        C  0.65696939  0.39640428  0.10602828    -0.23740
H880        H  0.62608732  0.44718229  0.06867137     0.15240
H881        H  0.58319190  0.33438390  0.03644786     0.15270
C882        C  0.57561930  0.37700020  0.98238908    -0.23690
H883        H  0.64555957  0.41468432  0.12523206     0.05480
H884        H  0.68183416  0.40656043  0.09707771     0.08710
H885        H  0.66078483  0.37093762  0.11981308     0.08710
H886        H  0.57651540  0.40014688  0.96423734     0.08690
H887        H  0.54917985  0.37076405  0.98933361     0.08690
H888        H  0.58660529  0.35460943  0.96809848     0.05470
C889        C  0.03296286  0.47062446  0.22158628    -0.20330
C890        C  0.00313012  0.49094696  0.22016268    -0.06900
C891        C  0.00610229  0.52261786  0.19973756     0.13970
C892        C  0.03601591  0.53204100  0.18260904    -0.20390
C893        C  0.06452330  0.51117925  0.18157781    -0.06910
C894        C  0.06297715  0.47980926  0.20208256     0.13960
C895        C  0.09341010  0.45737341  0.20593757    -0.23740
H896        H  0.03379229  0.44801401  0.23890666     0.15240
H897        H  0.03659623  0.55742862  0.17014784     0.15270
C898        C  0.97911419  0.54925738  0.19537857    -0.23690
H899        H  0.08900431  0.43598681  0.22577431     0.05480
H900        H  0.11496522  0.47366598  0.21467520     0.08710
H901        H  0.09984259  0.44485484  0.18055982     0.08710
H902        H  0.95518786  0.54137327  0.20719974     0.08690
H903        H  0.97483267  0.55336526  0.16679326     0.08690
H904        H  0.98699760  0.57454091  0.20716122     0.05470
C905        C  0.94128828  0.47729553  0.18453350    -0.20330
C906        C  0.93844043  0.47713959  0.22199278    -0.06900
C907        C  0.90525040  0.47016863  0.23614558     0.13970
C908        C  0.87708139  0.47514526  0.21432205    -0.20390
C909        C  0.88104912  0.48289655  0.17814845    -0.06910
C910        C  0.91344594  0.48110729  0.16283608     0.13960
C911        C  0.91898261  0.48560190  0.12347465    -0.23740
H912        H  0.96552396  0.47637376  0.17144791     0.15240
H913        H  0.85200003  0.47481398  0.22588598     0.15270
C914        C  0.89856850  0.45913569  0.27403624    -0.23690
H915        H  0.94586055  0.48343835  0.11566546     0.05480
H916        H  0.91048864  0.51181227  0.11464559     0.08710
H917        H  0.90465636  0.46498694  0.10950515     0.08710
H918        H  0.90937995  0.47821374  0.29251566     0.08690
H919        H  0.90919330  0.43286221  0.27888265     0.08690
H920        H  0.87126691  0.45693060  0.28024517     0.05470
C921        C  0.97187389  0.45296334  0.30664470    -0.20330
C922        C  0.97474634  0.44992795  0.26935469    -0.06900
C923        C  0.97911744  0.41496189  0.25648823     0.13970
C924        C  0.98690999  0.38733612  0.28032034    -0.20390
C925        C  0.98678313  0.39224583  0.31694818    -0.06910
C926        C  0.97636802  0.42482894  0.32993256     0.13960
C927        C  0.96967735  0.43094742  0.36863579    -0.23740
H928        H  0.96465316  0.47719443  0.31881746     0.15240
H929        H  0.99363605  0.36186724  0.27028187     0.15270
C930        C  0.97517088  0.40569461  0.21813879    -0.23690
H931        H  0.94431415  0.44210622  0.37235330     0.05480
H932        H  0.98864806  0.44965351  0.37891001     0.08710
H933        H  0.96986315  0.40632424  0.38427027     0.08710
H934        H  0.99184538  0.42173200  0.20049565     0.08690
H935        H  0.94873462  0.40915509  0.21051827     0.08690
H936        H  0.98113055  0.37779904  0.21330246     0.05470
C937        C  0.00177776  0.52588703  0.28475206    -0.20330
C938        C  0.97032062  0.51770066  0.26933645    -0.06900
C939        C  0.94315758  0.54071368  0.27927636     0.13970
C940        C  0.94719676  0.56340483  0.30836514    -0.20390
C941        C  0.97843865  0.56920666  0.32354742    -0.06910
C942        C  0.00649041  0.55306049  0.30846048     0.13960
C943        C  0.04171357  0.56459811  0.31714987    -0.23740
H944        H  0.02358897  0.51052831  0.27852826     0.15240
H945        H  0.92580280  0.57737855  0.31885440     0.15270
C946        C  0.91017919  0.54535125  0.26093556    -0.23690
H947        H  0.06084383  0.55008676  0.30173599     0.05480
H948        H  0.04671864  0.56038497  0.34533105     0.08710
H949        H  0.04505424  0.59295007  0.31069472     0.08710
H950        H  0.88912505  0.53477949  0.27771443     0.08690
H951        H  0.90887463  0.53476010  0.23434514     0.08690
H952        H  0.90592737  0.57383008  0.25676584     0.05470
C953        C  0.03629565  0.63595390  0.10128525    -0.20330
C954        C  0.05026435  0.65702037  0.07413072    -0.06900
C955        C  0.08569118  0.65886120  0.07078345     0.13970
C956        C  0.10528043  0.63650991  0.09208178    -0.20390
C957        C  0.08964425  0.60878493  0.11169650    -0.06910
C958        C  0.05413289  0.60643640  0.11115802     0.13960
C959        C  0.03595569  0.57197444  0.10496500    -0.23740
H960        H  0.00909029  0.63384602  0.10309816     0.15240
H961        H  0.13241308  0.63792963  0.09002616     0.15270
C962        C  0.10226321  0.68232182  0.04319124    -0.23690
H963        H  0.02980829  0.57027616  0.07658027     0.05480
H964        H  0.01181239  0.57072634  0.11997903     0.08710
H965        H  0.05098733  0.54861049  0.11069972     0.08710
H966        H  0.09530203  0.70994434  0.04798771     0.08690
H967        H  0.09393690  0.67468511  0.01652956     0.08690
H968        H  0.13002804  0.68054987  0.04375170     0.05470
C969        C  0.08017291  0.64378117  0.91340099    -0.20330
C970        C  0.04524516  0.64097839  0.91125305    -0.06900
C971        C  0.03095655  0.62309508  0.88281785     0.13970
C972        C  0.05137078  0.60252075  0.86145526    -0.20390
C973        C  0.08602163  0.60005999  0.86748436    -0.06910
C974        C  0.10090913  0.62462556  0.89058172     0.13960
C975        C  0.13824658  0.63058660  0.89228502    -0.23740
H976        H  0.09122079  0.65865057  0.93456031     0.15240
H977        H  0.03905065  0.58516888  0.84327390     0.15270
C978        C  0.99351393  0.62202492  0.87784980    -0.23690
H979        H  0.14415514  0.65889797  0.88793148     0.05480
H980        H  0.15189499  0.61608039  0.87148452     0.08710
H981        H  0.14734230  0.62255777  0.91866262     0.08710
H982        H  0.98392644  0.64915718  0.87626640     0.08690
H983        H  0.98103559  0.60773292  0.90025870     0.08690
H984        H  0.98663572  0.60842210  0.85324842     0.05470
C985        C  0.92072796  0.62172014  0.10888674    -0.20330
C986        C  0.91068267  0.63383309  0.07600868    -0.06900
C987        C  0.87650643  0.63173508  0.06761502     0.13970
C988        C  0.85426966  0.61254947  0.09016401    -0.20390
C989        C  0.86612680  0.59264614  0.11904269    -0.06910
C990        C  0.89890663  0.60188436  0.13105489     0.13960
C991        C  0.91259019  0.59090290  0.16604283    -0.23740
H992        H  0.94683048  0.62512451  0.11584502     0.15240
H993        H  0.82823824  0.61036768  0.08288245     0.15270
C994        C  0.86414195  0.64684549  0.03341537    -0.23690
H995        H  0.91704988  0.56237276  0.16613134     0.05480
H996        H  0.93701323  0.60406829  0.17128332     0.08710
H997        H  0.89527717  0.59876014  0.18772533     0.08710
H998        H  0.87705249  0.63430064  0.01073707     0.08690
H999        H  0.86938659  0.67553112  0.03237994     0.08690
H1000       H  0.83670526  0.64250413  0.03065856     0.05470
C1001       C  0.89162918  0.63965543  0.90549299    -0.20330
C1002       C  0.90925167  0.61467548  0.92548363    -0.06900
C1003       C  0.90317712  0.57836815  0.91910248     0.13970
C1004       C  0.88055372  0.56868525  0.89341807    -0.20390
C1005       C  0.86350609  0.59332755  0.87308968    -0.06910
C1006       C  0.86872862  0.62927806  0.87938748     0.13960
C1007       C  0.85020273  0.65635654  0.85863524    -0.23740
H1008       H  0.89589158  0.66734065  0.91006892     0.15240
H1009       H  0.87619374  0.54103876  0.88891698     0.15270
C1010       C  0.92015025  0.54873857  0.93845641    -0.23690
H1011       H  0.85703894  0.68339434  0.86672968     0.05480
H1012       H  0.82275975  0.65239152  0.86294528     0.08710
H1013       H  0.85635445  0.65379327  0.83007981     0.08710
H1014       H  0.91427927  0.54993213  0.96718802     0.08690
H1015       H  0.94766568  0.55010645  0.93333754     0.08690
H1016       H  0.91153344  0.52246292  0.92966440     0.05470
C1017       C  0.17302536  0.48122325  0.08140813    -0.20330
C1018       C  0.14678853  0.50443153  0.07525458    -0.06900
C1019       C  0.14193629  0.51585066  0.04022706     0.13970
C1020       C  0.16754325  0.51181178  0.01506898    -0.20390
C1021       C  0.19677034  0.49177673  0.02126348    -0.06910
C1022       C  0.19674243  0.47271658  0.05440186     0.13960
C1023       C  0.21973684  0.44288276  0.06269133    -0.23740
H1024       H  0.17571686  0.47056534  0.10785623     0.15240
H1025       H  0.16490161  0.52605872  0.99038690     0.15270
C1026       C  0.11043372  0.53389315  0.02880607    -0.23690
H1027       H  0.20990368  0.42704906  0.08559148     0.05480
H1028       H  0.24453026  0.45267283  0.07052166     0.08710
H1029       H  0.22158189  0.42442483  0.04046602     0.08710
H1030       H  0.11644872  0.56130778  0.02028094     0.08690
H1031       H  0.09088265  0.53413279  0.05006072     0.08690
H1032       H  0.09958843  0.51964981  0.00622058     0.05470
C1033       C  0.15545079  0.47533677  0.92135476    -0.20330
C1034       C  0.16215392  0.50190752  0.89633504    -0.06900
C1035       C  0.19290920  0.52007887  0.89726717     0.13970
C1036       C  0.21302108  0.51646195  0.92672502    -0.20390
C1037       C  0.20614016  0.49203134  0.95469115    -0.06910
C1038       C  0.17758870  0.46881478  0.94930958     0.13960
C1039       C  0.16784860  0.43799449  0.97305746    -0.23740
H1040       H  0.13214843  0.46038469  0.91988722     0.15240
H1041       H  0.23301657  0.53505801  0.92716047     0.15270
C1042       C  0.20431659  0.54441958  0.86734667    -0.23690
H1043       H  0.16530401  0.41405549  0.95687975     0.05480
H1044       H  0.14337705  0.44291380  0.98645506     0.08710
H1045       H  0.18649320  0.43212162  0.99324097     0.08710
H1046       H  0.18750143  0.56706101  0.86498017     0.08690
H1047       H  0.20445868  0.52981819  0.84218513     0.08690
H1048       H  0.23009297  0.55500926  0.87119249     0.05470
C1049       C  0.28294996  0.58046245  0.97525659    -0.20330
C1050       C  0.27416325  0.60222892  0.00376122    -0.06900
C1051       C  0.24635760  0.59132612  0.02470424     0.13970
C1052       C  0.23100731  0.55811460  0.01958538    -0.20390
C1053       C  0.24278409  0.53316950  0.99426252    -0.06910
C1054       C  0.27113614  0.54530319  0.97309698     0.13960
C1055       C  0.29080177  0.52226999  0.94815146    -0.23740
H1056       H  0.30464903  0.58832609  0.95915156     0.15240
H1057       H  0.21132698  0.55149538  0.03839277     0.15270
C1058       C  0.23460805  0.61391732  0.05471895    -0.23690
H1059       H  0.31522360  0.51588519  0.95998210     0.05480
H1060       H  0.29545350  0.53630128  0.92257848     0.08710
H1061       H  0.27788598  0.49755417  0.94153127     0.08710
H1062       H  0.22760623  0.64005635  0.04421414     0.08690
H1063       H  0.25490729  0.61730708  0.07408076     0.08690
H1064       H  0.21236225  0.60227501  0.06892367     0.05470
C1065       C  0.25193951  0.43580528  0.96962148    -0.20330
C1066       C  0.25327020  0.46454821  0.99336542    -0.06900
C1067       C  0.28323192  0.46615526  0.01411334     0.13970
C1068       C  0.30981369  0.44221967  0.00852266    -0.20390
C1069       C  0.30783315  0.41496040  0.98413422    -0.06910
C1070       C  0.27794758  0.41141311  0.96526458     0.13960
C1071       C  0.27390612  0.38221989  0.93911765    -0.23740
H1072       H  0.23116215  0.43246144  0.95237570     0.15240
H1073       H  0.33294972  0.44561598  0.02276884     0.15270
C1074       C  0.28970580  0.49315187  0.04180560    -0.23690
H1075       H  0.24885772  0.38228836  0.92680913     0.05480
H1076       H  0.27680532  0.35652660  0.95277675     0.08710
H1077       H  0.29317618  0.38499453  0.91766650     0.08710
H1078       H  0.29847725  0.48013759  0.06627839     0.08690
H1079       H  0.30994344  0.51100363  0.03185939     0.08690
H1080       H  0.26724285  0.50790333  0.04957629     0.05470
C1081       C  0.01888619  0.80187812  0.46382367    -0.20330
C1082       C  0.99795911  0.78836874  0.49144746    -0.06900
C1083       C  0.00224145  0.80465879  0.52447478     0.13970
C1084       C  0.03274718  0.82107129  0.53201685    -0.20390
C1085       C  0.05778450  0.82985180  0.50610958    -0.06910
C1086       C  0.04826682  0.82257548  0.47035725     0.13960
C1087       C  0.06776530  0.83545128  0.43825754    -0.23740
H1088       H  0.01387709  0.79388704  0.43709965     0.15240
H1089       H  0.03568179  0.82578025  0.55954677     0.15270
C1090       C  0.97629020  0.80320079  0.55364712    -0.23690
H1091       H  0.05381696  0.83088553  0.41359525     0.05480
H1092       H  0.09139539  0.82073366  0.43548980     0.08710
H1093       H  0.07209160  0.86423691  0.43970179     0.08710
H1094       H  0.95141374  0.80366698  0.54199944     0.08690
H1095       H  0.97789462  0.82707451  0.57008194     0.08690
H1096       H  0.97981993  0.78020061  0.57125793     0.05470
C1097       C  0.93055615  0.79852510  0.46793798    -0.20330
C1098       C  0.93736319  0.76575592  0.48420328    -0.06900
C1099       C  0.90823652  0.74312236  0.48843949     0.13970
C1100       C  0.87673083  0.75874804  0.49462628    -0.20390
C1101       C  0.87251922  0.79462573  0.48770708    -0.06910
C1102       C  0.89776488  0.81152085  0.46693674     0.13960
C1103       C  0.89051046  0.84469113  0.44657013    -0.23740
H1104       H  0.95056924  0.81392605  0.45545606     0.15240
H1105       H  0.85617518  0.74339297  0.50633910     0.15270
C1106       C  0.90885847  0.70357189  0.48611705    -0.23690
H1107       H  0.91322349  0.85496551  0.43216700     0.05480
H1108       H  0.88138124  0.86546827  0.46438064     0.08710
H1109       H  0.87090120  0.83906941  0.42694017     0.08710
H1110       H  0.93449350  0.69309859  0.48394654     0.08690
H1111       H  0.89513296  0.69549909  0.46226833     0.08690
H1112       H  0.89587926  0.69079294  0.50909168     0.05470
C1113       C  0.95963338  0.72651149  0.42660979    -0.20330
C1114       C  0.98459014  0.73288304  0.45260329    -0.06900
C1115       C  0.01592615  0.71569522  0.44550317     0.13970
C1116       C  0.01668471  0.68748357  0.42206585    -0.20390
C1117       C  0.98794626  0.67503513  0.40535299    -0.06910
C1118       C  0.95977564  0.69649243  0.40531063     0.13960
C1119       C  0.92900466  0.68672005  0.38496945    -0.23740
H1120       H  0.93777397  0.74261547  0.42477882     0.15240
H1121       H  0.03962871  0.67273779  0.41915866     0.15270
C1122       C  0.05013156  0.72493127  0.45941246    -0.23690
H1123       H  0.90858200  0.70581599  0.38892695     0.05480
H1124       H  0.91932752  0.66050814  0.39382217     0.08710
H1125       H  0.93531325  0.68622359  0.35633060     0.08710
H1126       H  0.05842465  0.70395505  0.47773365     0.08690
H1127       H  0.05253250  0.75034710  0.47184798     0.08690
H1128       H  0.06851648  0.72670907  0.43697582     0.05470
C1129       C  0.01517970  0.72678709  0.53276445    -0.20330
C1130       C  0.98154302  0.72996943  0.52182533    -0.06900
C1131       C  0.95776711  0.71403524  0.54693860     0.13970
C1132       C  0.96783191  0.68541690  0.56811485    -0.20390
C1133       C  0.00171605  0.68092471  0.57594196    -0.06910
C1134       C  0.02468487  0.70608875  0.56145298     0.13960
C1135       C  0.05823361  0.71470845  0.57743621    -0.23740
H1136       H  0.03424055  0.74441765  0.52267363     0.15240
H1137       H  0.94885376  0.66984348  0.58227027     0.15270
C1138       C  0.92691335  0.73132688  0.56206288    -0.23690
H1139       H  0.05992368  0.74331362  0.58250513     0.05480
H1140       H  0.07887793  0.70781670  0.55880720     0.08710
H1141       H  0.06170179  0.70147090  0.60330345     0.08710
H1142       H  0.92162812  0.75683271  0.55034414     0.08690
H1143       H  0.93087641  0.73669277  0.59046116     0.08690
H1144       H  0.90450359  0.71387292  0.56086766     0.05470
C1145       C  0.77392189  0.00772636  0.45574627    -0.20330
C1146       C  0.75755681  0.01253808  0.48874735    -0.06900
C1147       C  0.77085567  0.04015912  0.51026412     0.13970
C1148       C  0.79741626  0.06193076  0.49649637    -0.20390
C1149       C  0.80978552  0.05928299  0.46151289    -0.06910
C1150       C  0.79508575  0.03308382  0.44015257     0.13960
C1151       C  0.79968733  0.03131289  0.40029550    -0.23740
H1152       H  0.76627844  0.98638923  0.43928504     0.15240
H1153       H  0.80882664  0.08090953  0.51367706     0.15270
C1154       C  0.75983119  0.04723119  0.54798041    -0.23690
H1155       H  0.77542533  0.02766351  0.38719743     0.05480
H1156       H  0.81487334  0.00821136  0.39316876     0.08710
H1157       H  0.81102113  0.05572026  0.38871471     0.08710
H1158       H  0.75714010  0.02321225  0.56430635     0.08690
H1159       H  0.73634231  0.06210881  0.54879213     0.08690
H1160       H  0.77848693  0.06393361  0.56160508     0.05470
C1161       C  0.76967766  0.94971361  0.53327796    -0.20330
C1162       C  0.74985459  0.95041718  0.50267821    -0.06900
C1163       C  0.75531238  0.92216325  0.47828027     0.13970
C1164       C  0.78033904  0.89705163  0.48547821    -0.20390
C1165       C  0.79746157  0.89614786  0.51759359    -0.06910
C1166       C  0.78876103  0.92116314  0.54309060     0.13960
C1167       C  0.79752299  0.91812018  0.58165724    -0.23740
H1168       H  0.76780712  0.97040478  0.55211692     0.15240
H1169       H  0.78646413  0.87791714  0.46565662     0.15270
C1170       C  0.73640224  0.91671161  0.44449621    -0.23690
H1171       H  0.77437637  0.92083274  0.59814272     0.05480
H1172       H  0.81553503  0.93934215  0.58858529     0.08710
H1173       H  0.80785398  0.89224847  0.58882708     0.08710
H1174       H  0.73669316  0.94021820  0.42718871     0.08690
H1175       H  0.71044164  0.90768302  0.45072738     0.08690
H1176       H  0.74743317  0.89558807  0.42829151     0.05470
C1177       C  0.67577334  0.95789222  0.47194584    -0.20330
C1178       C  0.70252780  0.98277932  0.46693072    -0.06900
C1179       C  0.70059858  0.00526816  0.43579507     0.13970
C1180       C  0.67797589  0.99662660  0.40959318    -0.20390
C1181       C  0.65012394  0.97530373  0.41711021    -0.06910
C1182       C  0.64890484  0.95532746  0.44845490     0.13960
C1183       C  0.61902888  0.93202196  0.45725315    -0.23740
H1184       H  0.67519662  0.94120810  0.49532887     0.15240
H1185       H  0.67763278  0.01277687  0.38569909     0.15270
C1186       C  0.71422095  0.04253119  0.42997656    -0.23690
H1187       H  0.62199085  0.91786870  0.48279033     0.05480
H1188       H  0.61587313  0.91233691  0.43618767     0.08710
H1189       H  0.59606245  0.94801411  0.45918392     0.08710
H1190       H  0.72709702  0.04499723  0.40397958     0.08690
H1191       H  0.73046000  0.05392460  0.44978296     0.08690
H1192       H  0.69278768  0.06065986  0.42881184     0.05470
C1193       C  0.70242921  0.96720304  0.55968286    -0.20330
C1194       C  0.70627751  0.99255497  0.53163462    -0.06900
C1195       C  0.68547443  0.02255042  0.53471945     0.13970
C1196       C  0.66630872  0.02746404  0.56540388    -0.20390
C1197       C  0.66627988  0.00450600  0.59484218    -0.06910
C1198       C  0.68555867  0.97402712  0.59185745     0.13960
C1199       C  0.69034820  0.94869810  0.62212287    -0.23740
H1200       H  0.71259168  0.94129408  0.55738455     0.15240
H1201       H  0.64985286  0.04961199  0.56534879     0.15270
C1202       C  0.68129567  0.04999083  0.50620400    -0.23690
H1203       H  0.71754606  0.94387224  0.62510790     0.05480
H1204       H  0.67738577  0.92339070  0.61671760     0.08710
H1205       H  0.68138877  0.95910531  0.64771816     0.08710
H1206       H  0.66783310  0.03861892  0.48379522     0.08690
H1207       H  0.70565202  0.06210344  0.49878720     0.08690
H1208       H  0.66558048  0.07218824  0.51486972     0.05470
C1209       C  0.51488914  0.07062582  0.78399288    -0.20330
C1210       C  0.48994945  0.07867659  0.80872736    -0.06900
C1211       C  0.45859965  0.06124659  0.80631819     0.13970
C1212       C  0.45487479  0.03372727  0.78176180    -0.20390
C1213       C  0.48238955  0.02028862  0.76192459    -0.06910
C1214       C  0.51145220  0.04360542  0.75968935     0.13960
C1215       C  0.53817633  0.04635523  0.73086313    -0.23740
H1216       H  0.53789337  0.08635415  0.78346745     0.15240
H1217       H  0.43077563  0.02033698  0.78064401     0.15270
C1218       C  0.42985091  0.06942508  0.83101451    -0.23690
H1219       H  0.53910147  0.07354362  0.71984136     0.05480
H1220       H  0.53371141  0.03016803  0.70813890     0.08710
H1221       H  0.56327492  0.04086857  0.74155815     0.08710
H1222       H  0.42105757  0.09637805  0.82582178     0.08690
H1223       H  0.43789024  0.06690002  0.85881787     0.08690
H1224       H  0.40817135  0.05123300  0.82742626     0.05470
C1225       C  0.47007050  0.91708338  0.75001516    -0.20330
C1226       C  0.47098870  0.94989626  0.76785030    -0.06900
C1227       C  0.46973263  0.94726189  0.80598745     0.13970
C1228       C  0.47254745  0.91410049  0.82257560    -0.20390
C1229       C  0.48018551  0.88400432  0.80371351    -0.06910
C1230       C  0.47715172  0.88502360  0.76698902     0.13960
C1231       C  0.48310675  0.85264581  0.74566336    -0.23740
H1232       H  0.46764509  0.91692806  0.72163655     0.15240
H1233       H  0.47340896  0.91221811  0.85113590     0.15270
C1234       C  0.46688370  0.97730518  0.83126876    -0.23690
H1235       H  0.47976090  0.85766924  0.71700984     0.05480
H1236       H  0.46509717  0.83159363  0.75438972     0.08710
H1237       H  0.50908869  0.84348574  0.74948467     0.08710
H1238       H  0.46881900  0.96877645  0.85930105     0.08690
H1239       H  0.44166040  0.98874448  0.82967873     0.08690
H1240       H  0.48764035  0.99662796  0.82716436     0.05470
C1241       C  0.41374828  0.97237414  0.72789298    -0.20330
C1242       C  0.44500830  0.98962580  0.71917542    -0.06900
C1243       C  0.44440749  0.01482898  0.69052886     0.13970
C1244       C  0.41533962  0.01877390  0.67101523    -0.20390
C1245       C  0.38462139  0.00388438  0.68172974    -0.06910
C1246       C  0.38371464  0.97994800  0.71021616     0.13960
C1247       C  0.35097697  0.96339884  0.72263905    -0.23740
H1248       H  0.41169570  0.95445980  0.75017627     0.15240
H1249       H  0.41569770  0.03659469  0.64843318     0.15270
C1250       C  0.47251169  0.04022711  0.68032621    -0.23690
H1251       H  0.35432361  0.94548637  0.74561781     0.05480
H1252       H  0.33992703  0.94798431  0.70097050     0.08710
H1253       H  0.33324448  0.98413186  0.73061816     0.08710
H1254       H  0.49460131  0.02670876  0.67003901     0.08690
H1255       H  0.47808647  0.05766951  0.70249229     0.08690
H1256       H  0.46571492  0.05820645  0.65842370     0.05470
C1257       C  0.56955022  0.96859055  0.71046720    -0.20330
C1258       C  0.56535051  0.97157254  0.67406031    -0.06900
C1259       C  0.53326466  0.96470734  0.66070302     0.13970
C1260       C  0.50535979  0.96391584  0.68395868    -0.20390
C1261       C  0.50857851  0.97286776  0.71998466    -0.06910
C1262       C  0.54166213  0.96914720  0.73388205     0.13960
C1263       C  0.54980808  0.97029483  0.77238595    -0.23740
H1264       H  0.59457746  0.97161798  0.72086271     0.15240
H1265       H  0.48088815  0.95966106  0.67288120     0.15270
C1266       C  0.52832806  0.96125078  0.62160775    -0.23690
H1267       H  0.56854711  0.99140158  0.77737568     0.05480
H1268       H  0.56091207  0.94497877  0.78021654     0.08710
H1269       H  0.52796429  0.97551271  0.78930316     0.08710
H1270       H  0.54382467  0.93953195  0.61143646     0.08690
H1271       H  0.53587869  0.98595884  0.60765264     0.08690
H1272       H  0.50170068  0.95547230  0.61544361     0.05470
C1273       C  0.01530120  0.47686802  0.79731697    -0.20330
C1274       C  0.01549815  0.48660060  0.76099233    -0.06900
C1275       C  0.04814787  0.49134944  0.74444340     0.13970
C1276       C  0.07639693  0.49632194  0.76564549    -0.20390
C1277       C  0.07406366  0.49295786  0.80231202    -0.06910
C1278       C  0.04382502  0.48054481  0.81803867     0.13960
C1279       C  0.04077055  0.47443095  0.85742224    -0.23740
H1280       H  0.99217795  0.46990804  0.81105468     0.15240
H1281       H  0.10021551  0.50467796  0.75372844     0.15270
C1282       C  0.05455374  0.49195225  0.70499590    -0.23690
H1283       H  0.01526337  0.46493102  0.86561849     0.05480
H1284       H  0.04595712  0.49922672  0.87151758     0.08710
H1285       H  0.05901289  0.45437775  0.86565942     0.08710
H1286       H  0.08111357  0.49873785  0.69809880     0.08690
H1287       H  0.03922111  0.51136976  0.69108872     0.08690
H1288       H  0.05004630  0.46534484  0.69460696     0.05470
C1289       C  0.92016525  0.47435191  0.76168407    -0.20330
C1290       C  0.95019284  0.49417544  0.76731772    -0.06900
C1291       C  0.94858294  0.51950074  0.79525782     0.13970
C1292       C  0.91870064  0.52403821  0.81428668    -0.20390
C1293       C  0.88848482  0.50802073  0.80510962    -0.06910
C1294       C  0.88937398  0.48170377  0.77936748     0.13960
C1295       C  0.85771756  0.46274042  0.76918258    -0.23740
H1296       H  0.91980426  0.45480827  0.74129619     0.15240
H1297       H  0.91841656  0.54308388  0.83531807     0.15270
C1298       C  0.97625346  0.54413654  0.80701183    -0.23690
H1299       H  0.86246608  0.44365258  0.74784289     0.05480
H1300       H  0.83917309  0.48190466  0.75965246     0.08710
H1301       H  0.84694344  0.44810749  0.79237553     0.08710
H1302       H  0.00101839  0.54036583  0.79548308     0.08690
H1303       H  0.97954749  0.54097229  0.83595035     0.08690
H1304       H  0.96912102  0.57165404  0.80136705     0.05470
C1305       C  0.98675880  0.46372692  0.67853540    -0.20330
C1306       C  0.98093834  0.45892258  0.71560625    -0.06900
C1307       C  0.98244037  0.42324567  0.72850028     0.13970
C1308       C  0.99332542  0.39642617  0.70601161    -0.20390
C1309       C  0.00197833  0.40290039  0.67068274    -0.06910
C1310       C  0.99724337  0.43652441  0.65636325     0.13960
C1311       C  0.00524293  0.44423321  0.61792099    -0.23740
H1312       H  0.98701158  0.48941169  0.66653446     0.15240
H1313       H  0.99638218  0.37012295  0.71664175     0.15270
C1314       C  0.97463013  0.41115874  0.76588424    -0.23690
H1315       H  0.00018411  0.47192486  0.61060319     0.05480
H1316       H  0.98960420  0.42703423  0.60120912     0.08710
H1317       H  0.03215245  0.43932832  0.61212490     0.08710
H1318       H  0.96376945  0.43103346  0.78293785     0.08690
H1319       H  0.99781878  0.40146868  0.77821954     0.08690
H1320       H  0.95588244  0.38928398  0.76554692     0.05470
C1321       C  0.00373894  0.55540721  0.72696905    -0.20330
C1322       C  0.98023086  0.52804497  0.72018143    -0.06900
C1323       C  0.95503147  0.53665731  0.69474048     0.13970
C1324       C  0.96105518  0.56489802  0.67072139    -0.20390
C1325       C  0.98729565  0.58886078  0.67574101    -0.06910
C1326       C  0.00485492  0.58678254  0.70740240     0.13960
C1327       C  0.02567609  0.61750305  0.71964204    -0.23740
H1328       H  0.02250901  0.55281287  0.74670505     0.15240
H1329       H  0.94601142  0.56758749  0.64735383     0.15270
C1330       C  0.92251998  0.51634369  0.69091925    -0.23690
H1331       H  0.03927923  0.61115558  0.74416319     0.05480
H1332       H  0.00885210  0.63974311  0.72522357     0.08710
H1333       H  0.04415616  0.62629182  0.69915078     0.08710
H1334       H  0.92639157  0.48802135  0.68726033     0.08690
H1335       H  0.90830456  0.52564849  0.66777851     0.08690
H1336       H  0.90617116  0.52085010  0.71431735     0.05470
C1337       C  0.47407312  0.75412447  0.06928645    -0.20330
C1338       C  0.47937118  0.76669056  0.03388304    -0.06900
C1339       C  0.48335018  0.80408373  0.02946006     0.13970
C1340       C  0.48741133  0.82493074  0.05955558    -0.20390
C1341       C  0.48725975  0.81051926  0.09371470    -0.06910
C1342       C  0.47893782  0.77510333  0.09878976     0.13960
C1343       C  0.47731816  0.75899563  0.13535041    -0.23740
H1344       H  0.46987771  0.72654378  0.07445687     0.15240
H1345       H  0.49362126  0.85262064  0.05627712     0.15270
C1346       C  0.48410019  0.82393895  0.99467281    -0.23690
H1347       H  0.47025608  0.73070097  0.13488361     0.05480
H1348       H  0.45830433  0.77270630  0.15165476     0.08710
H1349       H  0.50214192  0.76149554  0.14792862     0.08710
H1350       H  0.46463699  0.81446675  0.97678362     0.08690
H1351       H  0.50934331  0.82340545  0.98217970     0.08690
H1352       H  0.47867434  0.85213778  0.99850637     0.05470
C1353       C  0.46458124  0.75309385  0.93915975    -0.20330
C1354       C  0.48893464  0.75217577  0.96596970    -0.06900
C1355       C  0.52186079  0.76427932  0.95474403     0.13970
C1356       C  0.52692653  0.77831014  0.92075186    -0.20390
C1357       C  0.50036258  0.79079769  0.90059845    -0.06910
C1358       C  0.46834459  0.77537840  0.90889439     0.13960
C1359       C  0.43781452  0.78157452  0.88720344    -0.23740
H1360       H  0.44138942  0.73848590  0.94247918     0.15240
H1361       H  0.55253095  0.78283443  0.91150667     0.15270
C1362       C  0.55249609  0.76566160  0.97752273    -0.23690
H1363       H  0.41537684  0.76722586  0.89816137     0.05480
H1364       H  0.44212531  0.77194011  0.86000931     0.08710
H1365       H  0.43170127  0.80985618  0.88725728     0.08710
H1366       H  0.56332689  0.73924613  0.98001899     0.08690
H1367       H  0.54658093  0.77779816  0.00321538     0.08690
H1368       H  0.57292993  0.78244011  0.96563480     0.05470
C1369       C  0.44189724  0.68766962  0.02933228    -0.20330
C1370       C  0.44416323  0.71916942  0.00920954    -0.06900
C1371       C  0.41196170  0.73453246  0.00160472     0.13970
C1372       C  0.38232874  0.71300233  0.00258845    -0.20390
C1373       C  0.38202729  0.68034183  0.01979877    -0.06910
C1374       C  0.41128743  0.67150176  0.03848810     0.13960
C1375       C  0.41123070  0.64380351  0.06744489    -0.23740
H1376       H  0.46378918  0.67662676  0.04127611     0.15240
H1377       H  0.35939355  0.72214248  0.99098322     0.15270
C1378       C  0.40688440  0.77335371  0.99578505    -0.23690
H1379       H  0.42190770  0.65523210  0.09167064     0.05480
H1380       H  0.42683191  0.62134908  0.05922012     0.08710
H1381       H  0.38552370  0.63412926  0.07450268     0.08710
H1382       H  0.41771365  0.78337962  0.97066933     0.08690
H1383       H  0.41699873  0.78823185  0.01820314     0.08690
H1384       H  0.37977606  0.77951588  0.99488907     0.05470
C1385       C  0.53458961  0.71884533  0.03796743    -0.20330
C1386       C  0.50978103  0.71070551  0.01259137    -0.06900
C1387       C  0.51536863  0.67920381  0.99294656     0.13970
C1388       C  0.54292004  0.65731956  0.00062403    -0.20390
C1389       C  0.56695128  0.66641436  0.02568911    -0.06910
C1390       C  0.56345822  0.69885434  0.04281254     0.13960
C1391       C  0.59122664  0.71364563  0.06518439    -0.23740
H1392       H  0.53393039  0.74312300  0.05213146     0.15240
H1393       H  0.54511192  0.63236220  0.98746890     0.15270
C1394       C  0.49277065  0.66673616  0.96407073    -0.23690
H1395       H  0.58592245  0.74072794  0.07392115     0.05480
H1396       H  0.61502489  0.71472033  0.04944238     0.08710
H1397       H  0.59481821  0.69755757  0.08930203     0.08710
H1398       H  0.47157271  0.68405547  0.95886928     0.08690
H1399       H  0.48216650  0.64042392  0.97129912     0.08690
H1400       H  0.50760649  0.66469876  0.93908269     0.05470
C1401       C  0.78552873  0.47399338  0.01853333    -0.20330
C1402       C  0.75025725  0.47971068  0.02297429    -0.06900
C1403       C  0.73949491  0.48344359  0.05918380     0.13970
C1404       C  0.76300364  0.49126049  0.08544210    -0.20390
C1405       C  0.79746116  0.49040209  0.07880218    -0.06910
C1406       C  0.80886773  0.47993475  0.04537782     0.13960
C1407       C  0.84584525  0.47634418  0.03763850    -0.23740
H1408       H  0.79563285  0.46628427  0.99315723     0.15240
H1409       H  0.75426408  0.49710936  0.11200002     0.15270
C1410       C  0.70567049  0.47237189  0.07347495    -0.23690
H1411       H  0.85083362  0.46792049  0.01010515     0.05480
H1412       H  0.85638684  0.45649661  0.05584379     0.08710
H1413       H  0.85895346  0.50190853  0.04138285     0.08710
H1414       H  0.69495936  0.45128229  0.05721644     0.08690
H1415       H  0.68954344  0.49542337  0.07715340     0.08690
H1416       H  0.70788353  0.46036605  0.10019271     0.05470
C1417       C  0.79646272  0.52677775  0.92819356    -0.20330
C1418       C  0.79291490  0.50961947  0.89587200    -0.06900
C1419       C  0.76901168  0.48216916  0.89388514     0.13970
C1420       C  0.74897415  0.47318296  0.92391453    -0.20390
C1421       C  0.75043444  0.49220665  0.95602963    -0.06910
C1422       C  0.77451356  0.52066033  0.95695436     0.13960
C1423       C  0.77804594  0.54639192  0.98695996    -0.23740
H1424       H  0.81531586  0.54746007  0.93027681     0.15240
H1425       H  0.73090228  0.45210245  0.92101552     0.15270
C1426       C  0.76344746  0.46322782  0.85979788    -0.23690
H1427       H  0.77661856  0.57367568  0.97656164     0.05480
H1428       H  0.80297971  0.54354311  0.99913177     0.08710
H1429       H  0.75842621  0.54370129  0.00781936     0.08710
H1430       H  0.78632825  0.44890351  0.85198946     0.08690
H1431       H  0.75721762  0.48234142  0.83864960     0.08690
H1432       H  0.74249119  0.44372617  0.86226447     0.05470
C1433       C  0.73354585  0.41417844  0.98906738    -0.20330
C1434       C  0.71218790  0.44304918  0.98306559    -0.06900
C1435       C  0.68018545  0.43359371  0.96884426     0.13970
C1436       C  0.66791165  0.39839387  0.97189291    -0.20390
C1437       C  0.68773352  0.37111196  0.98483698    -0.06910
C1438       C  0.72206371  0.37900434  0.98964320     0.13960
C1439       C  0.74671336  0.35009230  0.99611091    -0.23740
H1440       H  0.75971899  0.41862038  0.99394331     0.15240
H1441       H  0.64254481  0.39235866  0.96423638     0.15270
C1442       C  0.65926396  0.45838563  0.94763108    -0.23690
H1443       H  0.77280265  0.36048378  0.99797465     0.05480
H1444       H  0.74603085  0.33146424  0.97385826     0.08710
H1445       H  0.74064762  0.33559619  0.02102795     0.08710
H1446       H  0.67275452  0.48301069  0.94033515     0.08690
H1447       H  0.63560974  0.46407091  0.96223280     0.08690
H1448       H  0.65279417  0.44596264  0.92224547     0.05470
C1449       C  0.67016948  0.50363709  0.01449249    -0.20330
C1450       C  0.69845377  0.51146036  0.99301236    -0.06900
C1451       C  0.69711115  0.54613999  0.97657491     0.13970
C1452       C  0.67701142  0.57287384  0.99202974    -0.20390
C1453       C  0.65299374  0.56510116  0.01868391    -0.06910
C1454       C  0.64819609  0.52916637  0.02740301     0.13960
C1455       C  0.61978565  0.51648552  0.05073892    -0.23740
H1456       H  0.66420251  0.47673142  0.02108361     0.15240
H1457       H  0.67863921  0.59945221  0.98152998     0.15270
C1458       C  0.70870767  0.55459959  0.93914371    -0.23690
H1459       H  0.60860928  0.49329258  0.03939415     0.05480
H1460       H  0.59925065  0.53543597  0.05250622     0.08710
H1461       H  0.62926444  0.50944761  0.07716103     0.08710
H1462       H  0.71246275  0.53110082  0.92302062     0.08690
H1463       H  0.73117975  0.57207069  0.93864974     0.08690
H1464       H  0.68869378  0.56884201  0.92516983     0.05470
loop_ 
_geom_bond_atom_site_label_1 
_geom_bond_atom_site_label_2 
_geom_bond_distance 
_geom_bond_site_symmetry_2 
_ccdc_geom_bond_type 
C1         C1402   1.619   1_556  S
C1         C1421   1.575       .  S
C1         C1434   1.602       .  S
C1         C1450   1.621       .  S
C2         C1338   1.578       .  S
C2         C1354   1.587   1_554  S
C2         C1370   1.598       .  S
C2         C1386   1.605       .  S
C3         C1274   1.584   1_655  S
C3         C1290   1.582       .  S
C3         C1306   1.586       .  S
C3         C1322   1.589       .  S
C4         C1213   1.595   1_565  S
C4         C1226   1.601       .  S
C4         C1242   1.588       .  S
C4         C1261   1.579       .  S
C5         C1146   1.570   1_565  S
C5         C1162   1.590       .  S
C5         C1178   1.577       .  S
C5         C1194   1.590       .  S
C6         C1082   1.590       .  S
C6         C1098   1.578       .  S
C6         C1114   1.604       .  S
C6         C1130   1.612       .  S
C7         C1021   1.595   1_556  S
C7         C1037   1.606       .  S
C7         C1053   1.618       .  S
C7         C1066   1.610       .  S
O8          Cu16   1.952   1_556  S
O8           C18   1.269       .  A
O9          Cu16   1.946   1_455  S
O9           C19   1.272       .  A
O10         Cu16   1.981       .  S
O10          C20   1.275       .  A
O11         Cu16   1.958   1_456  S
O11          C21   1.272       .  A
O12         Cu17   2.032   1_455  S
O12          C21   1.279       .  A
O13         Cu17   2.032   1_554  S
O13          C20   1.279       .  A
O14         Cu17   2.065   1_454  S
O14          C19   1.283       .  A
O15         Cu17   2.053       .  S
O15          C18   1.283       .  A
Cu16        Cu17   2.366   1_554  S
C18        C1002   1.495       .  S
C19         C954   1.475       .  S
C20         C986   1.470       .  S
C21         C970   1.460       .  S
C22        C1293   1.502       .  S
C22          C23   1.420       .  A
C22          C27   1.415       .  A
C23          C24   1.423       .  A
C23          H28   1.081       .  S
C24        C1418   1.499       .  S
C24          C25   1.411       .  A
C25          C26   1.391       .  A
C25          H29   1.084       .  S
C26        C1005   1.490       .  S
C26          C27   1.396       .  A
C27          H30   1.085       .  S
C31         C890   1.599   1_655  S
C31         C906   1.586       .  S
C31         C922   1.585       .  S
C31         C938   1.605       .  S
C32         C909   1.495       .  S
C32          C33   1.411       .  A
C32          C37   1.404       .  A
C33          C34   1.411       .  A
C33          H38   1.083       .  S
C34        C1405   1.489       .  S
C34          C35   1.402       .  A
C35          C36   1.415       .  A
C35          H39   1.080       .  S
C36         C989   1.525       .  S
C36          C37   1.409       .  A
C37          H40   1.072       .  S
C41        C1034   1.482       .  S
C41          C42   1.405       .  A
C41          C46   1.404       .  A
C42          C43   1.407       .  A
C42          H47   1.083       .  S
C43        C1277   1.476       .  S
C43          C44   1.402       .  A
C44          C45   1.402       .  A
C44          H48   1.083       .  S
C45         C973   1.499       .  S
C45          C46   1.404       .  A
C46          H49   1.082       .  S
O50         Cu58   1.901       .  S
O50          C60   1.267       .  A
O51         Cu58   1.902       .  S
O51          C61   1.262       .  A
O52         Cu58   2.043   1_556  S
O52          C62   1.284       .  A
O53         Cu58   2.026       .  S
O53          C63   1.277       .  A
O54         Cu59   1.984   1_554  S
O54          C63   1.275       .  A
O55         Cu59   1.985       .  S
O55          C62   1.272       .  A
O56         Cu59   1.989       .  S
O56          C61   1.280   1_556  A
O57         Cu59   2.014   1_554  S
O57          C60   1.278       .  A
Cu58        Cu59   2.378   1_554  S
C60         C874   1.448       .  S
C61         C842   1.435       .  S
C62         C826   1.475       .  S
C63         C858   1.468       .  S
C64        C1389   1.508       .  S
C64          C65   1.427       .  A
C64          C69   1.402       .  A
C65          C66   1.428       .  A
C65          H70   1.082   1_554  S
C66        C1453   1.528       .  S
C66          C67   1.414       .  A
C67          C68   1.410       .  A
C67          H71   1.073       .  S
C68         C861   1.524       .  S
C68          C69   1.400       .  A
C69          H72   1.080       .  S
C73         C765   1.579   1_556  S
C73         C778   1.587       .  S
C73         C794   1.629       .  S
C73         C810   1.606       .  S
O74         Cu82   2.046       .  S
O74          C84   1.281       .  A
O75         Cu82   2.038   1_544  S
O75          C85   1.280       .  A
O76         Cu82   2.038   1_554  S
O76          C86   1.280       .  A
O77         Cu82   2.032   1_545  S
O77          C87   1.279       .  A
O78         Cu83   1.967   1_546  S
O78          C87   1.273       .  A
O79         Cu83   1.955       .  S
O79          C86   1.272       .  A
O80         Cu83   1.938   1_545  S
O80          C85   1.270       .  A
O81         Cu83   1.939   1_556  S
O81          C84   1.272       .  A
Cu82        Cu83   2.378   1_556  S
C84         C749   1.467       .  S
C85         C701   1.459       .  S
C86         C730   1.463       .  S
C87         C714   1.465       .  S
C88        C1229   1.487       .  S
C88          C89   1.417       .  A
C88          C93   1.399       .  A
C89          C90   1.427       .  A
C89          H94   1.072       .  S
C90        C1357   1.532       .  S
C90          C91   1.420       .  A
C91          C92   1.393       .  A
C91          H95   1.082       .  S
C92         C746   1.485       .  S
C92          C93   1.389       .  A
C93          H96   1.082       .  S
C97         C637   1.585   1_565  S
C97         C650   1.591       .  S
C97         C669   1.585       .  S
C97         C682   1.581       .  S
C98         C653   1.483       .  S
C98          C99   1.404       .  A
C98         C103   1.407       .  A
C99         C100   1.400       .  A
C99         H104   1.083       .  S
C100       C1341   1.474       .  S
C100        C101   1.398       .  A
C101        C102   1.403       .  A
C101        H105   1.083       .  S
C102        C733   1.504       .  S
C102        C103   1.413       .  A
C103        H106   1.080       .  S
C107        C781   1.484       .  S
C107        C108   1.415       .  A
C107        C112   1.406       .  A
C108        C109   1.415       .  A
C108        H113   1.080       .  S
C109       C1210   1.500       .  S
C109        C110   1.406       .  A
C110        C111   1.399       .  A
C110        H114   1.083       .  S
C111        C717   1.496       .  S
C111        C112   1.402       .  A
C112        H115   1.082       .  S
O116       Cu124   1.985       .  S
O116        C126   1.279       .  A
O117       Cu124   2.016       .  S
O117        C127   1.282       .  A
O118       Cu124   1.940       .  S
O118        C128   1.270       .  A
O119       Cu124   1.943       .  S
O119        C129   1.268       .  A
O120       Cu125   2.036       .  S
O120        C129   1.283       .  A
O121       Cu125   2.042       .  S
O121        C128   1.282       .  A
O122       Cu125   1.965       .  S
O122        C127   1.270       .  A
O123       Cu125   1.993       .  S
O123        C126   1.273       .  A
Cu124      Cu125   2.371       .  S
C126        C605   1.463       .  S
C127        C586   1.482       .  S
C128        C618   1.469       .  S
C129        C573   1.473       .  S
C130       C1325   1.485   1_455  S
C130        C131   1.411   1_455  A
C130        C135   1.399       .  A
C131        C132   1.421   1_655  A
C131        H136   1.082       .  S
C132       C1133   1.505       .  S
C132        C133   1.410       .  A
C133        C134   1.399       .  A
C133        H137   1.076       .  S
C134        C602   1.495       .  S
C134        C135   1.391       .  A
C135        H138   1.082       .  S
O139       Cu147   1.970       .  S
O139        C149   1.273       .  A
O140       Cu147   1.965       .  S
O140        C150   1.274       .  A
O141       Cu147   1.942       .  S
O141        C151   1.273       .  A
O142       Cu147   1.944       .  S
O142        C152   1.270       .  A
O143       Cu148   2.059       .  S
O143        C152   1.283       .  A
O144       Cu148   2.048       .  S
O144        C151   1.281       .  A
O145       Cu148   2.030       .  S
O145        C150   1.278       .  A
O146       Cu148   2.040       .  S
O146        C149   1.280       .  A
Cu147      Cu148   2.376       .  S
C149        C554   1.467       .  S
C150        C522   1.463       .  S
C151        C538   1.474       .  S
C152        C509   1.469       .  S
C153       C1258   1.482       .  S
C153        C154   1.412       .  A
C153        C158   1.402   1_565  A
C154        C155   1.426   1_565  A
C154        H159   1.080       .  S
C155       C1197   1.512       .  S
C155        C156   1.412       .  A
C156        C157   1.391       .  A
C156        H160   1.084       .  S
C157        C541   1.476       .  S
C157        C158   1.388       .  A
C158        H161   1.081       .  S
C162        C442   1.593   1_565  S
C162        C458   1.586       .  S
C162        C474   1.573       .  S
C162        C490   1.566       .  S
O163       Cu171   1.995       .  S
O163        C173   1.274   1_565  A
O164       Cu171   1.970       .  S
O164        C174   1.272       .  A
O165       Cu171   2.021       .  S
O165        C175   1.277       .  A
O166       Cu171   2.024       .  S
O166        C176   1.282       .  A
O167       Cu172   2.004   1_565  S
O167        C176   1.273       .  A
O168       Cu172   1.952       .  S
O168        C175   1.271   1_545  A
O169       Cu172   2.020   1_565  S
O169        C174   1.279       .  A
O170       Cu172   2.037       .  S
O170        C173   1.285       .  A
Cu171      Cu172   2.370   1_565  S
C173        C378   1.494       .  S
C174        C426   1.479   1_455  S
C175        C410   1.457   1_465  S
C176        C394   1.477       .  S
C177       C1101   1.491       .  S
C177        C178   1.412       .  A
C177        C182   1.402       .  A
C178        C179   1.421       .  A
C178        H183   1.081       .  S
C179       C1165   1.505       .  S
C179        C180   1.414       .  A
C180        C181   1.396       .  A
C180        H184   1.083       .  S
C181        C429   1.483       .  S
C181        C182   1.395       .  A
C182        H185   1.074       .  S
C186        C314   1.611   1_655  S
C186        C330   1.584       .  S
C186        C346   1.575       .  S
C186        C362   1.593       .  S
C187       C1149   1.512       .  S
C187        C188   1.407       .  A
C187        C192   1.430       .  A
C188        C189   1.383       .  A
C188        H193   1.078       .  S
C189        C413   1.488       .  S
C189        C190   1.389       .  A
C190        C191   1.410       .  A
C190        H194   1.079       .  S
C191        C333   1.509       .  S
C191        C192   1.419       .  A
C192        H195   1.080       .  S
C196       C1085   1.557       .  S
C196        C197   1.431       .  A
C196        C201   1.429       .  A
C197        C198   1.418       .  A
C197        H202   1.064       .  S
C198        C461   1.511       .  S
C198        C199   1.397       .  A
C199        C200   1.387       .  A
C199        H203   1.073       .  S
C200        C397   1.520       .  S
C200        C201   1.413       .  A
C201        H204   1.064       .  S
C205       C1245   1.490       .  S
C205        C206   1.410       .  A
C205        C210   1.409       .  A
C206        C207   1.405       .  A
C206        H211   1.083       .  S
C207        C557   1.507       .  S
C207        C208   1.403       .  A
C208        C209   1.403       .  A
C208        H212   1.080       .  S
C209        C477   1.485       .  S
C209        C210   1.408       .  A
C210        H213   1.083   1_545  S
C214       C1309   1.485       .  S
C214        C215   1.406       .  A
C214        C219   1.402       .  A
C215        C216   1.412       .  A
C215        H220   1.081       .  S
C216        C621   1.503       .  S
C216        C217   1.408       .  A
C217        C218   1.404       .  A
C217        H221   1.083       .  S
C218        C349   1.480       .  S
C218        C219   1.404       .  A
C219        H222   1.084   1_455  S
C223        C445   1.493       .  S
C223        C224   1.400       .  A
C223        C228   1.420       .  A
C224        C225   1.399       .  A
C224        H229   1.081       .  S
C225        C381   1.512       .  S
C225        C226   1.404       .  A
C226        C227   1.405       .  A
C226        H230   1.085       .  S
C227        C317   1.500       .  S
C227        C228   1.422       .  A
C228        H231   1.082       .  S
C232        C685   1.483       .  S
C232        C233   1.404       .  A
C232        C237   1.401   1_565  A
C233        C234   1.406       .  A
C233        H238   1.083       .  S
C234       C1181   1.473       .  S
C234        C235   1.409   1_565  A
C235        C236   1.401       .  A
C235        H239   1.082       .  S
C236        C525   1.501       .  S
C236        C237   1.396       .  A
C237        H240   1.068       .  S
C241        C941   1.489       .  S
C241        C242   1.418       .  A
C241        C246   1.406       .  A
C242        C243   1.418       .  A
C242        H247   1.082       .  S
C243       C1117   1.494       .  S
C243        C244   1.401       .  A
C244        C245   1.388   1_655  A
C244        H248   1.084   1_655  S
C245        C570   1.482       .  S
C245        C246   1.396   1_455  A
C246        H249   1.085       .  S
C250       C1437   1.513   1_554  S
C250        C251   1.411       .  A
C250        C255   1.449   1_554  A
C251        C252   1.387       .  A
C251        H256   1.084       .  S
C252        C877   1.513       .  S
C252        C253   1.400       .  A
C253        C254   1.411       .  A
C253        H257   1.073       .  S
C254        C797   1.550       .  S
C254        C255   1.457   1_554  A
C255        H258   1.080       .  S
C259        C762   1.536       .  S
C259        C260   1.425       .  A
C259        C264   1.424       .  A
C260        C261   1.415       .  A
C260        H265   1.069       .  S
C261        C634   1.487       .  S
C261        C262   1.403       .  A
C262        C263   1.377       .  A
C262        H266   1.083       .  S
C263        C698   1.483       .  S
C263        C264   1.391       .  A
C264        H267   1.080       .  S
C268       C1373   1.509       .  S
C268        C269   1.437       .  A
C268        C273   1.388       .  A
C269        C270   1.443       .  A
C269        H274   1.081       .  S
C270       C1050   1.502       .  S
C270        C271   1.389       .  A
C271        C272   1.378       .  A
C271        H275   1.080       .  S
C272        C845   1.440       .  S
C272        C273   1.380       .  A
C273        H276   1.086   1_554  S
C277       C1018   1.501       .  S
C277        C278   1.408       .  A
C277        C282   1.425       .  A
C278        C279   1.388       .  A
C278        H283   1.083       .  S
C279        C957   1.496       .  S
C279        C280   1.398       .  A
C280        C281   1.418       .  A
C280        H284   1.083       .  S
C281        C893   1.525       .  S
C281        C282   1.428       .  A
C282        H285   1.079       .  S
C286        C925   1.496   1_455  S
C286        C287   1.406       .  A
C286        C291   1.422   1_455  A
C287        C288   1.394       .  A
C287        H292   1.085       .  S
C288        C589   1.466       .  S
C288        C289   1.385       .  A
C289        C290   1.396       .  A
C289        H293   1.084       .  S
C290        C365   1.490   1_455  S
C290        C291   1.422   1_455  A
C291        H294   1.083       .  S
C295        C666   1.483       .  S
C295        C296   1.399       .  A
C295        C300   1.412       .  A
C296        C297   1.402       .  A
C296        H301   1.081   1_545  S
C297        C493   1.485       .  S
C297        C298   1.409       .  A
C298        C299   1.402       .  A
C298        H302   1.081       .  S
C299        C506   1.512       .  S
C299        C300   1.405       .  A
C300        H303   1.080       .  S
C304       C1069   1.513       .  S
C304        C305   1.411       .  A
C304        C309   1.427       .  A
C305        C306   1.414       .  A
C305        H310   1.074       .  S
C306        C829   1.521       .  S
C306        C307   1.404       .  A
C307        C308   1.397       .  A
C307        H311   1.080       .  S
C308        C813   1.509       .  S
C308        C309   1.423       .  A
C309        H312   1.082   1_556  S
C313        C314   1.425       .  A
C313        C318   1.412       .  A
C313        H320   1.076       .  S
C314        C315   1.446       .  A
C315        C322   1.510       .  S
C315        C316   1.411       .  A
C316        C317   1.398       .  A
C316        H321   1.086       .  S
C317        C318   1.412       .  A
C318        C319   1.508       .  S
C319        H323   1.110       .  S
C319        H324   1.103       .  S
C319        H325   1.108       .  S
C322        H326   1.089       .  S
C322        H327   1.110       .  S
C322        H328   1.111       .  S
C329        C330   1.414       .  A
C329        C334   1.386       .  A
C329        H336   1.078       .  S
C330        C331   1.454       .  A
C331        C338   1.511       .  S
C331        C332   1.427       .  A
C332        C333   1.401       .  A
C332        H337   1.084       .  S
C333        C334   1.402       .  A
C334        C335   1.503       .  S
C335        H339   1.111       .  S
C335        H340   1.099       .  S
C335        H341   1.109       .  S
C338        H342   1.093       .  S
C338        H343   1.110       .  S
C338        H344   1.110       .  S
C345        C346   1.419       .  A
C345        C350   1.403       .  A
C345        H352   1.075       .  S
C346        C347   1.444       .  A
C347        C354   1.509       .  S
C347        C348   1.408       .  A
C348        C349   1.391   1_655  A
C348        H353   1.085       .  S
C349        C350   1.405   1_455  A
C350        C351   1.508   1_655  S
C351        H355   1.110   1_455  S
C351        H356   1.108       .  S
C351        H357   1.107       .  S
C354        H358   1.111       .  S
C354        H359   1.094       .  S
C354        H360   1.111       .  S
C361        C362   1.421   1_455  A
C361        C366   1.406       .  A
C361        H368   1.082       .  S
C362        C363   1.440       .  A
C363        C370   1.503       .  S
C363        C364   1.412       .  A
C364        C365   1.396       .  A
C364        H369   1.084       .  S
C365        C366   1.411   1_655  A
C366        C367   1.505       .  S
C367        H371   1.110       .  S
C367        H372   1.111       .  S
C367        H373   1.110       .  S
C370        H374   1.100       .  S
C370        H375   1.104       .  S
C370        H376   1.111       .  S
C377        C378   1.418       .  A
C377        C382   1.418       .  A
C377        H384   1.081       .  S
C378        C379   1.432       .  A
C379        C386   1.489       .  S
C379        C380   1.405       .  A
C380        C381   1.393       .  A
C380        H385   1.084       .  S
C381        C382   1.407       .  A
C382        C383   1.499       .  S
C383        H387   1.100       .  S
C383        H388   1.111       .  S
C383        H389   1.110       .  S
C386        H390   1.094       .  S
C386        H391   1.108       .  S
C386        H392   1.109       .  S
C393        C394   1.403       .  A
C393        C398   1.402       .  A
C393        H400   1.077       .  S
C394        C395   1.422       .  A
C395        C402   1.502       .  S
C395        C396   1.407       .  A
C396        C397   1.403       .  A
C396        H401   1.084       .  S
C397        C398   1.416       .  A
C398        C399   1.502       .  S
C399        H403   1.111       .  S
C399        H404   1.110       .  S
C399        H405   1.111       .  S
C402        H406   1.110       .  S
C402        H407   1.107       .  S
C402        H408   1.110       .  S
C409        C410   1.404       .  A
C409        C414   1.410       .  A
C409        H416   1.084   1_655  S
C410        C411   1.406       .  A
C411        C418   1.511   1_545  S
C411        C412   1.381       .  A
C412        C413   1.409       .  A
C412        H417   1.083       .  S
C413        C414   1.413       .  A
C414        C415   1.505       .  S
C415        H419   1.111       .  S
C415        H420   1.106       .  S
C415        H421   1.110       .  S
C418        H422   1.108       .  S
C418        H423   1.104       .  S
C418        H424   1.111       .  S
C425        C426   1.411       .  A
C425        C430   1.415       .  A
C425        H432   1.083       .  S
C426        C427   1.419       .  A
C427        C434   1.515       .  S
C427        C428   1.384       .  A
C428        C429   1.393       .  A
C428        H433   1.068       .  S
C429        C430   1.409       .  A
C430        C431   1.502       .  S
C431        H435   1.111       .  S
C431        H436   1.111       .  S
C431        H437   1.110       .  S
C434        H438   1.104   1_655  S
C434        H439   1.107       .  S
C434        H440   1.110       .  S
C441        C442   1.423       .  A
C441        C446   1.406       .  A
C441        H448   1.070       .  S
C442        C443   1.437       .  A
C443        C450   1.494   1_545  S
C443        C444   1.417       .  A
C444        C445   1.399       .  A
C444        H449   1.085       .  S
C445        C446   1.405       .  A
C446        C447   1.508       .  S
C447        H451   1.110       .  S
C447        H452   1.110       .  S
C447        H453   1.109       .  S
C450        H454   1.096       .  S
C450        H455   1.106       .  S
C450        H456   1.110   1_565  S
C457        C458   1.419       .  A
C457        C462   1.410       .  A
C457        H464   1.069       .  S
C458        C459   1.447       .  A
C459        C466   1.518       .  S
C459        C460   1.410       .  A
C460        C461   1.403       .  A
C460        H465   1.086       .  S
C461        C462   1.412       .  A
C462        C463   1.507       .  S
C463        H467   1.110       .  S
C463        H468   1.108       .  S
C463        H469   1.109       .  S
C466        H470   1.111       .  S
C466        H471   1.092       .  S
C466        H472   1.111       .  S
C473        C474   1.422       .  A
C473        C478   1.403       .  A
C473        H480   1.077       .  S
C474        C475   1.448   1_565  A
C475        C482   1.518       .  S
C475        C476   1.407       .  A
C476        C477   1.397       .  A
C476        H481   1.086       .  S
C477        C478   1.401   1_545  A
C478        C479   1.506       .  S
C479        H483   1.110       .  S
C479        H484   1.110   1_565  S
C479        H485   1.110       .  S
C482        H486   1.095       .  S
C482        H487   1.110       .  S
C482        H488   1.112       .  S
C489        C490   1.417       .  A
C489        C494   1.406       .  A
C489        H496   1.072       .  S
C490        C491   1.437   1_565  A
C491        C498   1.501       .  S
C491        C492   1.400       .  A
C492        C493   1.391       .  A
C492        H497   1.086       .  S
C493        C494   1.413   1_545  A
C494        C495   1.508       .  S
C495        H499   1.111       .  S
C495        H500   1.110       .  S
C495        H501   1.109       .  S
C498        H502   1.108       .  S
C498        H503   1.087       .  S
C498        H504   1.110       .  S
C505        C506   1.414       .  A
C505        C510   1.398       .  A
C505        H512   1.079       .  S
C506        C507   1.423       .  A
C507        C514   1.506       .  S
C507        C508   1.409       .  A
C508        C509   1.401       .  A
C508        H513   1.084       .  S
C509        C510   1.408       .  A
C510        C511   1.511       .  S
C511        H515   1.110       .  S
C511        H516   1.110       .  S
C511        H517   1.109       .  S
C514        H518   1.110       .  S
C514        H519   1.111       .  S
C514        H520   1.110       .  S
C521        C522   1.402       .  A
C521        C526   1.407       .  A
C521        H528   1.084       .  S
C522        C523   1.402       .  A
C523        C530   1.508       .  S
C523        C524   1.395       .  A
C524        C525   1.409       .  A
C524        H529   1.075       .  S
C525        C526   1.420       .  A
C526        C527   1.505       .  S
C527        H531   1.110       .  S
C527        H532   1.108       .  S
C527        H533   1.110       .  S
C530        H534   1.110       .  S
C530        H535   1.107       .  S
C530        H536   1.110       .  S
C537        C538   1.398       .  A
C537        C542   1.384       .  A
C537        H544   1.087       .  S
C538        C539   1.411       .  A
C539        C546   1.502       .  S
C539        C540   1.413       .  A
C540        C541   1.407       .  A
C540        H545   1.084       .  S
C541        C542   1.420       .  A
C542        C543   1.512       .  S
C543        H547   1.111       .  S
C543        H548   1.097       .  S
C543        H549   1.110       .  S
C546        H550   1.106       .  S
C546        H551   1.110       .  S
C546        H552   1.111       .  S
C553        C554   1.400       .  A
C553        C558   1.406       .  A
C553        H560   1.084       .  S
C554        C555   1.406       .  A
C555        C562   1.506       .  S
C555        C556   1.398       .  A
C556        C557   1.412       .  A
C556        H561   1.080       .  S
C557        C558   1.421       .  A
C558        C559   1.505       .  S
C559        H563   1.110       .  S
C559        H564   1.110       .  S
C559        H565   1.111       .  S
C562        H566   1.108       .  S
C562        H567   1.110       .  S
C562        H568   1.110       .  S
C569        C570   1.405       .  A
C569        C574   1.398       .  A
C569        H576   1.077       .  S
C570        C571   1.414       .  A
C571        C578   1.509   1_455  S
C571        C572   1.398       .  A
C572        C573   1.408       .  A
C572        H577   1.085       .  S
C573        C574   1.411       .  A
C574        C575   1.508       .  S
C575        H579   1.111       .  S
C575        H580   1.111       .  S
C575        H581   1.110       .  S
C578        H582   1.108       .  S
C578        H583   1.111       .  S
C578        H584   1.111       .  S
C585        C586   1.403       .  A
C585        C590   1.394       .  A
C585        H592   1.084       .  S
C586        C587   1.426       .  A
C587        C594   1.509       .  S
C587        C588   1.404       .  A
C588        C589   1.394       .  A
C588        H593   1.084       .  S
C589        C590   1.414       .  A
C590        C591   1.511       .  S
C591        H595   1.110   1_455  S
C591        H596   1.104   1_455  S
C591        H597   1.102   1_455  S
C594        H598   1.109       .  S
C594        H599   1.109       .  S
C594        H600   1.111       .  S
C601        C602   1.407       .  A
C601        C606   1.398       .  A
C601        H608   1.080       .  S
C602        C603   1.427       .  A
C603        C610   1.507       .  S
C603        C604   1.402       .  A
C604        C605   1.396       .  A
C604        H609   1.084       .  S
C605        C606   1.409       .  A
C606        C607   1.506       .  S
C607        H611   1.110       .  S
C607        H612   1.111       .  S
C607        H613   1.104       .  S
C610        H614   1.104       .  S
C610        H615   1.109       .  S
C610        H616   1.111       .  S
C617        C618   1.405       .  A
C617        C622   1.412       .  A
C617        H624   1.083       .  S
C618        C619   1.407       .  A
C619        C626   1.502       .  S
C619        C620   1.404       .  A
C620        C621   1.412       .  A
C620        H625   1.082       .  S
C621        C622   1.422       .  A
C622        C623   1.509       .  S
C623        H627   1.111       .  S
C623        H628   1.110       .  S
C623        H629   1.104       .  S
C626        H630   1.111       .  S
C626        H631   1.109       .  S
C626        H632   1.110       .  S
C633        C634   1.391       .  A
C633        C638   1.403       .  A
C633        H640   1.087       .  S
C634        C635   1.406       .  A
C635        C642   1.506       .  S
C635        C636   1.410       .  A
C636        C637   1.423       .  A
C636        H641   1.079       .  S
C637        C638   1.446       .  A
C638        C639   1.497       .  S
C639        H643   1.111       .  S
C639        H644   1.109       .  S
C639        H645   1.078       .  S
C642        H646   1.110       .  S
C642        H647   1.110       .  S
C642        H648   1.111       .  S
C649        C650   1.423       .  A
C649        C654   1.401       .  A
C649        H656   1.080       .  S
C650        C651   1.447       .  A
C651        C658   1.513   1_565  S
C651        C652   1.412       .  A
C652        C653   1.395       .  A
C652        H657   1.085       .  S
C653        C654   1.402       .  A
C654        C655   1.508       .  S
C655        H659   1.111       .  S
C655        H660   1.110       .  S
C655        H661   1.110       .  S
C658        H662   1.101       .  S
C658        H663   1.107       .  S
C658        H664   1.111       .  S
C665        C666   1.386       .  A
C665        C670   1.394       .  A
C665        H672   1.086       .  S
C666        C667   1.404   1_545  A
C667        C674   1.505       .  S
C667        C668   1.411       .  A
C668        C669   1.427       .  A
C668        H673   1.081       .  S
C669        C670   1.442   1_565  A
C670        C671   1.505       .  S
C671        H675   1.102       .  S
C671        H676   1.094       .  S
C671        H677   1.108       .  S
C674        H678   1.110   1_565  S
C674        H679   1.109       .  S
C674        H680   1.111       .  S
C681        C682   1.420       .  A
C681        C686   1.403       .  A
C681        H688   1.081       .  S
C682        C683   1.438       .  A
C683        C690   1.499   1_565  S
C683        C684   1.409       .  A
C684        C685   1.398       .  A
C684        H689   1.085       .  S
C685        C686   1.409       .  A
C686        C687   1.506       .  S
C687        H691   1.110       .  S
C687        H692   1.111       .  S
C687        H693   1.106       .  S
C690        H694   1.085       .  S
C690        H695   1.108   1_545  S
C690        H696   1.110       .  S
C697        C698   1.404       .  A
C697        C702   1.397       .  A
C697        H704   1.082       .  S
C698        C699   1.418       .  A
C699        C706   1.507       .  S
C699        C700   1.402       .  A
C700        C701   1.399       .  A
C700        H705   1.084       .  S
C701        C702   1.411       .  A
C702        C703   1.510   1_545  S
C703        H707   1.108       .  S
C703        H708   1.110       .  S
C703        H709   1.108       .  S
C706        H710   1.108       .  S
C706        H711   1.110       .  S
C706        H712   1.110       .  S
C713        C714   1.400       .  A
C713        C718   1.405       .  A
C713        H720   1.084       .  S
C714        C715   1.407       .  A
C715        C722   1.509       .  S
C715        C716   1.399       .  A
C716        C717   1.405       .  A
C716        H721   1.075       .  S
C717        C718   1.421       .  A
C718        C719   1.507       .  S
C719        H723   1.110       .  S
C719        H724   1.109       .  S
C719        H725   1.111       .  S
C722        H726   1.110   1_556  S
C722        H727   1.109   1_556  S
C722        H728   1.108       .  S
C729        C730   1.403       .  A
C729        C734   1.407       .  A
C729        H736   1.084       .  S
C730        C731   1.405       .  A
C731        C738   1.509       .  S
C731        C732   1.396       .  A
C732        C733   1.414       .  A
C732        H737   1.080       .  S
C733        C734   1.418       .  A
C734        C735   1.505       .  S
C735        H739   1.110       .  S
C735        H740   1.110       .  S
C735        H741   1.110       .  S
C738        H742   1.110       .  S
C738        H743   1.110   1_554  S
C738        H744   1.111       .  S
C745        C746   1.410       .  A
C745        C750   1.408       .  A
C745        H752   1.084       .  S
C746        C747   1.416       .  A
C747        C754   1.507       .  S
C747        C748   1.395       .  A
C748        C749   1.400       .  A
C748        H753   1.086       .  S
C749        C750   1.407       .  A
C750        C751   1.504       .  S
C751        H755   1.111       .  S
C751        H756   1.108       .  S
C751        H757   1.110       .  S
C754        H758   1.110       .  S
C754        H759   1.096       .  S
C754        H760   1.111       .  S
C761        C762   1.405       .  A
C761        C766   1.382       .  A
C761        H768   1.078       .  S
C762        C763   1.434       .  A
C763        C770   1.502       .  S
C763        C764   1.426       .  A
C764        C765   1.420       .  A
C764        H769   1.079       .  S
C765        C766   1.426       .  A
C766        C767   1.508   1_554  S
C767        H771   1.107       .  S
C767        H772   1.111       .  S
C767        H773   1.092       .  S
C770        H774   1.109       .  S
C770        H775   1.110       .  S
C770        H776   1.111       .  S
C777        C778   1.410       .  A
C777        C782   1.421       .  A
C777        H784   1.082       .  S
C778        C779   1.448       .  A
C779        C786   1.514       .  S
C779        C780   1.398       .  A
C780        C781   1.389       .  A
C780        H785   1.086       .  S
C781        C782   1.411       .  A
C782        C783   1.502       .  S
C783        H787   1.111       .  S
C783        H788   1.110       .  S
C783        H789   1.110       .  S
C786        H790   1.097   1_556  S
C786        H791   1.110       .  S
C786        H792   1.111       .  S
C793        C794   1.416   1_554  A
C793        C798   1.401       .  A
C793        H800   1.083       .  S
C794        C795   1.455       .  A
C795        C802   1.501       .  S
C795        C796   1.431       .  A
C796        C797   1.404   1_556  A
C796        H801   1.082       .  S
C797        C798   1.441       .  A
C798        C799   1.518       .  S
C799        H803   1.111       .  S
C799        H804   1.106       .  S
C799        H805   1.109       .  S
C802        H806   1.100       .  S
C802        H807   1.111       .  S
C802        H808   1.105       .  S
C809        C810   1.429       .  A
C809        C814   1.420       .  A
C809        H816   1.074       .  S
C810        C811   1.444       .  A
C811        C818   1.504       .  S
C811        C812   1.415       .  A
C812        C813   1.399       .  A
C812        H817   1.086   1_556  S
C813        C814   1.405       .  A
C814        C815   1.504       .  S
C815        H819   1.111       .  S
C815        H820   1.110       .  S
C815        H821   1.110   1_556  S
C818        H822   1.107       .  S
C818        H823   1.102   1_556  S
C818        H824   1.107       .  S
C825        C826   1.400       .  A
C825        C830   1.400       .  A
C825        H832   1.077       .  S
C826        C827   1.403       .  A
C827        C834   1.502       .  S
C827        C828   1.411       .  A
C828        C829   1.420       .  A
C828        H833   1.083       .  S
C829        C830   1.415       .  A
C830        C831   1.502       .  S
C831        H835   1.110       .  S
C831        H836   1.110       .  S
C831        H837   1.109       .  S
C834        H838   1.110       .  S
C834        H839   1.111       .  S
C834        H840   1.105       .  S
C841        C842   1.393   1_556  A
C841        C846   1.379       .  A
C841        H848   1.080       .  S
C842        C843   1.414       .  A
C843        C850   1.510       .  S
C843        C844   1.385       .  A
C844        C845   1.394       .  A
C844        H849   1.084       .  S
C845        C846   1.411   1_554  A
C846        C847   1.514       .  S
C847        H851   1.111       .  S
C847        H852   1.106       .  S
C847        H853   1.104       .  S
C850        H854   1.109       .  S
C850        H855   1.110       .  S
C850        H856   1.111       .  S
C857        C858   1.404       .  A
C857        C862   1.410       .  A
C857        H864   1.084       .  S
C858        C859   1.409       .  A
C859        C866   1.507       .  S
C859        C860   1.404       .  A
C860        C861   1.414       .  A
C860        H865   1.081       .  S
C861        C862   1.415       .  A
C862        C863   1.506       .  S
C863        H867   1.111       .  S
C863        H868   1.110       .  S
C863        H869   1.104       .  S
C866        H870   1.109       .  S
C866        H871   1.110       .  S
C866        H872   1.111       .  S
C873        C874   1.418       .  A
C873        C878   1.412       .  A
C873        H880   1.077       .  S
C874        C875   1.393       .  A
C875        C882   1.511   1_554  S
C875        C876   1.377       .  A
C876        C877   1.403       .  A
C876        H881   1.058       .  S
C877        C878   1.412       .  A
C878        C879   1.501       .  S
C879        H883   1.110       .  S
C879        H884   1.103       .  S
C879        H885   1.110       .  S
C882        H886   1.111       .  S
C882        H887   1.102       .  S
C882        H888   1.109       .  S
C889        C890   1.432       .  A
C889        C894   1.430       .  A
C889        H896   1.078       .  S
C890        C891   1.427       .  A
C891        C898   1.502   1_455  S
C891        C892   1.386       .  A
C892        C893   1.398       .  A
C892        H897   1.071       .  S
C893        C894   1.417       .  A
C894        C895   1.505       .  S
C895        H899   1.111       .  S
C895        H900   1.110       .  S
C895        H901   1.107       .  S
C898        H902   1.082       .  S
C898        H903   1.109       .  S
C898        H904   1.111       .  S
C905        C906   1.421       .  A
C905        C910   1.403       .  A
C905        H912   1.078       .  S
C906        C907   1.437       .  A
C907        C914   1.507       .  S
C907        C908   1.422       .  A
C908        C909   1.403       .  A
C908        H913   1.083       .  S
C909        C910   1.408       .  A
C910        C911   1.510       .  S
C911        H915   1.111       .  S
C911        H916   1.110       .  S
C911        H917   1.110       .  S
C914        H918   1.105       .  S
C914        H919   1.109       .  S
C914        H920   1.110       .  S
C921        C922   1.421       .  A
C921        C926   1.396       .  A
C921        H928   1.079       .  S
C922        C923   1.438       .  A
C923        C930   1.510       .  S
C923        C924   1.420       .  A
C924        C925   1.402       .  A
C924        H929   1.084       .  S
C925        C926   1.408       .  A
C926        C927   1.507       .  S
C927        H931   1.111       .  S
C927        H932   1.111       .  S
C927        H933   1.103       .  S
C930        H934   1.104       .  S
C930        H935   1.108       .  S
C930        H936   1.111       .  S
C937        C938   1.426   1_455  A
C937        C942   1.393       .  A
C937        H944   1.080       .  S
C938        C939   1.452       .  A
C939        C946   1.511       .  S
C939        C940   1.420       .  A
C940        C941   1.398       .  A
C940        H945   1.085       .  S
C941        C942   1.401   1_655  A
C942        C943   1.508       .  S
C943        H947   1.111       .  S
C943        H948   1.100       .  S
C943        H949   1.110       .  S
C946        H950   1.110       .  S
C946        H951   1.092       .  S
C946        H952   1.111       .  S
C953        C954   1.397       .  A
C953        C958   1.392       .  A
C953        H960   1.087       .  S
C954        C955   1.416       .  A
C955        C962   1.502       .  S
C955        C956   1.420       .  A
C956        C957   1.413       .  A
C956        H961   1.083       .  S
C957        C958   1.418       .  A
C958        C959   1.513       .  S
C959        H963   1.110       .  S
C959        H964   1.108       .  S
C959        H965   1.104       .  S
C962        H966   1.110       .  S
C962        H967   1.110       .  S
C962        H968   1.111       .  S
C969        C970   1.399       .  A
C969        C974   1.405       .  A
C969        H976   1.084       .  S
C970        C971   1.408       .  A
C971        C978   1.508   1_455  S
C971        C972   1.395       .  A
C972        C973   1.409       .  A
C972        H977   1.081       .  S
C973        C974   1.421       .  A
C974        C975   1.505       .  S
C975        H979   1.110       .  S
C975        H980   1.108       .  S
C975        H981   1.111       .  S
C978        H982   1.110       .  S
C978        H983   1.107       .  S
C978        H984   1.110       .  S
C985        C986   1.391       .  A
C985        C990   1.402       .  A
C985        H992   1.085       .  S
C986        C987   1.407       .  A
C987        C994   1.506       .  S
C987        C988   1.408       .  A
C988        C989   1.416       .  A
C988        H993   1.081       .  S
C989        C990   1.432       .  A
C990        C991   1.500       .  S
C991        H995   1.105       .  S
C991        H996   1.111       .  S
C991        H997   1.110       .  S
C994        H998   1.111       .  S
C994        H999   1.110       .  S
C994       H1000   1.111       .  S
C1001      C1002   1.414       .  A
C1001      C1006   1.415       .  A
C1001      H1008   1.083       .  S
C1002      C1003   1.426       .  A
C1003      C1010   1.515       .  S
C1003      C1004   1.389       .  A
C1004      C1005   1.400       .  A
C1004      H1009   1.082       .  S
C1005      C1006   1.407       .  A
C1006      C1007   1.502       .  S
C1007      H1011   1.111       .  S
C1007      H1012   1.110       .  S
C1007      H1013   1.110       .  S
C1010      H1014   1.110       .  S
C1010      H1015   1.110       .  S
C1010      H1016   1.111       .  S
C1017      C1018   1.402       .  A
C1017      C1022   1.423       .  A
C1017      H1024   1.084       .  S
C1018      C1019   1.409       .  A
C1019      C1026   1.510       .  S
C1019      C1020   1.394       .  A
C1020      C1021   1.426       .  A
C1020      H1025   1.083   1_554  S
C1021      C1022   1.442       .  A
C1022      C1023   1.507       .  S
C1023      H1027   1.111       .  S
C1023      H1028   1.098       .  S
C1023      H1029   1.107       .  S
C1026      H1030   1.111       .  S
C1026      H1031   1.110       .  S
C1026      H1032   1.111       .  S
C1033      C1034   1.397       .  A
C1033      C1038   1.414       .  A
C1033      H1040   1.085       .  S
C1034      C1035   1.399       .  A
C1035      C1042   1.513       .  S
C1035      C1036   1.394       .  A
C1036      C1037   1.420       .  A
C1036      H1041   1.058       .  S
C1037      C1038   1.449       .  A
C1038      C1039   1.511       .  S
C1039      H1043   1.111       .  S
C1039      H1044   1.111       .  S
C1039      H1045   1.100       .  S
C1042      H1046   1.106       .  S
C1042      H1047   1.110       .  S
C1042      H1048   1.111       .  S
C1049      C1050   1.413   1_556  A
C1049      C1054   1.417       .  A
C1049      H1056   1.084       .  S
C1050      C1051   1.404       .  A
C1051      C1058   1.508       .  S
C1051      C1052   1.414       .  A
C1052      C1053   1.438   1_554  A
C1052      H1057   1.074       .  S
C1053      C1054   1.439       .  A
C1054      C1055   1.515       .  S
C1055      H1059   1.109       .  S
C1055      H1060   1.111       .  S
C1055      H1061   1.101       .  S
C1058      H1062   1.110       .  S
C1058      H1063   1.110       .  S
C1058      H1064   1.111       .  S
C1065      C1066   1.428       .  A
C1065      C1070   1.413       .  A
C1065      H1072   1.072       .  S
C1066      C1067   1.444   1_556  A
C1067      C1074   1.503       .  S
C1067      C1068   1.425       .  A
C1068      C1069   1.402   1_554  A
C1068      H1073   1.085       .  S
C1069      C1070   1.407       .  A
C1070      C1071   1.509       .  S
C1071      H1075   1.111       .  S
C1071      H1076   1.110       .  S
C1071      H1077   1.110       .  S
C1074      H1078   1.111       .  S
C1074      H1079   1.104       .  S
C1074      H1080   1.103       .  S
C1081      C1082   1.411   1_455  A
C1081      C1086   1.429       .  A
C1081      H1088   1.083       .  S
C1082      C1083   1.416   1_655  A
C1083      C1090   1.498   1_455  S
C1083      C1084   1.395       .  A
C1084      C1085   1.418       .  A
C1084      H1089   1.069       .  S
C1085      C1086   1.443       .  A
C1086      C1087   1.502       .  S
C1087      H1091   1.111       .  S
C1087      H1092   1.109       .  S
C1087      H1093   1.110       .  S
C1090      H1094   1.094       .  S
C1090      H1095   1.111       .  S
C1090      H1096   1.107       .  S
C1097      C1098   1.418       .  A
C1097      C1102   1.407       .  A
C1097      H1104   1.080       .  S
C1098      C1099   1.440       .  A
C1099      C1106   1.512       .  S
C1099      C1100   1.416       .  A
C1100      C1101   1.403       .  A
C1100      H1105   1.083       .  S
C1101      C1102   1.407       .  A
C1102      C1103   1.508       .  S
C1103      H1107   1.111       .  S
C1103      H1108   1.109       .  S
C1103      H1109   1.110       .  S
C1106      H1110   1.105       .  S
C1106      H1111   1.110       .  S
C1106      H1112   1.106       .  S
C1113      C1114   1.434       .  A
C1113      C1118   1.409       .  A
C1113      H1120   1.077       .  S
C1114      C1115   1.443   1_655  A
C1115      C1122   1.510       .  S
C1115      C1116   1.404       .  A
C1116      C1117   1.399   1_455  A
C1116      H1121   1.086       .  S
C1117      C1118   1.401       .  A
C1118      C1119   1.506       .  S
C1119      H1123   1.111       .  S
C1119      H1124   1.110       .  S
C1119      H1125   1.109       .  S
C1122      H1126   1.111       .  S
C1122      H1127   1.087       .  S
C1122      H1128   1.112       .  S
C1129      C1130   1.418   1_455  A
C1129      C1134   1.397       .  A
C1129      H1136   1.067       .  S
C1130      C1131   1.449       .  A
C1131      C1138   1.512       .  S
C1131      C1132   1.414       .  A
C1132      C1133   1.402   1_655  A
C1132      H1137   1.083       .  S
C1133      C1134   1.413       .  A
C1134      C1135   1.512       .  S
C1135      H1139   1.111       .  S
C1135      H1140   1.111       .  S
C1135      H1141   1.108       .  S
C1138      H1142   1.089       .  S
C1138      H1143   1.112       .  S
C1138      H1144   1.107       .  S
C1145      C1146   1.414       .  A
C1145      C1150   1.390       .  A
C1145      H1152   1.075   1_545  S
C1146      C1147   1.441       .  A
C1147      C1154   1.515       .  S
C1147      C1148   1.421       .  A
C1148      C1149   1.410       .  A
C1148      H1153   1.081       .  S
C1149      C1150   1.420       .  A
C1150      C1151   1.520       .  S
C1151      H1155   1.104       .  S
C1151      H1156   1.110       .  S
C1151      H1157   1.109       .  S
C1154      H1158   1.101       .  S
C1154      H1159   1.103       .  S
C1154      H1160   1.111       .  S
C1161      C1162   1.416       .  A
C1161      C1166   1.389       .  A
C1161      H1168   1.073       .  S
C1162      C1163   1.445       .  A
C1163      C1170   1.513       .  S
C1163      C1164   1.422       .  A
C1164      C1165   1.407       .  A
C1164      H1169   1.081       .  S
C1165      C1166   1.409       .  A
C1166      C1167   1.512       .  S
C1167      H1171   1.111       .  S
C1167      H1172   1.110       .  S
C1167      H1173   1.108       .  S
C1170      H1174   1.103       .  S
C1170      H1175   1.105       .  S
C1170      H1176   1.111       .  S
C1177      C1178   1.424       .  A
C1177      C1182   1.409       .  A
C1177      H1184   1.083       .  S
C1178      C1179   1.453   1_565  A
C1179      C1186   1.524       .  S
C1179      C1180   1.394   1_545  A
C1180      C1181   1.388       .  A
C1180      H1185   1.088   1_565  S
C1181      C1182   1.401       .  A
C1182      C1183   1.503       .  S
C1183      H1187   1.111       .  S
C1183      H1188   1.110       .  S
C1183      H1189   1.110       .  S
C1186      H1190   1.103       .  S
C1186      H1191   1.091       .  S
C1186      H1192   1.109       .  S
C1193      C1194   1.431       .  A
C1193      C1198   1.410       .  A
C1193      H1200   1.078       .  S
C1194      C1195   1.429   1_565  A
C1195      C1202   1.507       .  S
C1195      C1196   1.395       .  A
C1196      C1197   1.408       .  A
C1196      H1201   1.078       .  S
C1197      C1198   1.409   1_545  A
C1198      C1199   1.506       .  S
C1199      H1203   1.111       .  S
C1199      H1204   1.110       .  S
C1199      H1205   1.107       .  S
C1202      H1206   1.103       .  S
C1202      H1207   1.098       .  S
C1202      H1208   1.111       .  S
C1209      C1210   1.393       .  A
C1209      C1214   1.398       .  A
C1209      H1216   1.087       .  S
C1210      C1211   1.411       .  A
C1211      C1218   1.504       .  S
C1211      C1212   1.420       .  A
C1212      C1213   1.424       .  A
C1212      H1217   1.082       .  S
C1213      C1214   1.449       .  A
C1214      C1215   1.512       .  S
C1215      H1219   1.112       .  S
C1215      H1220   1.082       .  S
C1215      H1221   1.109       .  S
C1218      H1222   1.108       .  S
C1218      H1223   1.110       .  S
C1218      H1224   1.111       .  S
C1225      C1226   1.430       .  A
C1225      C1230   1.409       .  A
C1225      H1232   1.081       .  S
C1226      C1227   1.447       .  A
C1227      C1234   1.507       .  S
C1227      C1228   1.411       .  A
C1228      C1229   1.395       .  A
C1228      H1233   1.085       .  S
C1229      C1230   1.399       .  A
C1230      C1231   1.504       .  S
C1231      H1235   1.111       .  S
C1231      H1236   1.110       .  S
C1231      H1237   1.110       .  S
C1234      H1238   1.111       .  S
C1234      H1239   1.105       .  S
C1234      H1240   1.106       .  S
C1241      C1242   1.430       .  A
C1241      C1246   1.416       .  A
C1241      H1248   1.079       .  S
C1242      C1243   1.440   1_565  A
C1243      C1250   1.509       .  S
C1243      C1244   1.396       .  A
C1244      C1245   1.392       .  A
C1244      H1249   1.085       .  S
C1245      C1246   1.403   1_545  A
C1246      C1247   1.504       .  S
C1247      H1251   1.111       .  S
C1247      H1252   1.110       .  S
C1247      H1253   1.110       .  S
C1250      H1254   1.096       .  S
C1250      H1255   1.102       .  S
C1250      H1256   1.110       .  S
C1257      C1258   1.396       .  A
C1257      C1262   1.409       .  A
C1257      H1264   1.085       .  S
C1258      C1259   1.407       .  A
C1259      C1266   1.505       .  S
C1259      C1260   1.405       .  A
C1260      C1261   1.419       .  A
C1260      H1265   1.080       .  S
C1261      C1262   1.438       .  A
C1262      C1263   1.502       .  S
C1263      H1267   1.109       .  S
C1263      H1268   1.108       .  S
C1263      H1269   1.093       .  S
C1266      H1270   1.110       .  S
C1266      H1271   1.108       .  S
C1266      H1272   1.111       .  S
C1273      C1274   1.420       .  A
C1273      C1278   1.401       .  A
C1273      H1280   1.077   1_455  S
C1274      C1275   1.441       .  A
C1275      C1282   1.511       .  S
C1275      C1276   1.408       .  A
C1276      C1277   1.394       .  A
C1276      H1281   1.084       .  S
C1277      C1278   1.406       .  A
C1278      C1279   1.509       .  S
C1279      H1283   1.111       .  S
C1279      H1284   1.110       .  S
C1279      H1285   1.110       .  S
C1282      H1286   1.111       .  S
C1282      H1287   1.103       .  S
C1282      H1288   1.106       .  S
C1289      C1290   1.426       .  A
C1289      C1294   1.421       .  A
C1289      H1296   1.081       .  S
C1290      C1291   1.444       .  A
C1291      C1298   1.514       .  S
C1291      C1292   1.395       .  A
C1292      C1293   1.394       .  A
C1292      H1297   1.085       .  S
C1293      C1294   1.409       .  A
C1294      C1295   1.504       .  S
C1295      H1299   1.111       .  S
C1295      H1300   1.110       .  S
C1295      H1301   1.109       .  S
C1298      H1302   1.084   1_655  S
C1298      H1303   1.112       .  S
C1298      H1304   1.111       .  S
C1305      C1306   1.427       .  A
C1305      C1310   1.407       .  A
C1305      H1312   1.074       .  S
C1306      C1307   1.442       .  A
C1307      C1314   1.508       .  S
C1307      C1308   1.408       .  A
C1308      C1309   1.393   1_655  A
C1308      H1313   1.085       .  S
C1309      C1310   1.402   1_455  A
C1310      C1311   1.508   1_655  S
C1311      H1315   1.111       .  S
C1311      H1316   1.110   1_455  S
C1311      H1317   1.110       .  S
C1314      H1318   1.092       .  S
C1314      H1319   1.111       .  S
C1314      H1320   1.111       .  S
C1321      C1322   1.420   1_455  A
C1321      C1326   1.398       .  A
C1321      H1328   1.073       .  S
C1322      C1323   1.445       .  A
C1323      C1330   1.509       .  S
C1323      C1324   1.414       .  A
C1324      C1325   1.395       .  A
C1324      H1329   1.084       .  S
C1325      C1326   1.403   1_655  A
C1326      C1327   1.508       .  S
C1327      H1331   1.111       .  S
C1327      H1332   1.110       .  S
C1327      H1333   1.104       .  S
C1330      H1334   1.104       .  S
C1330      H1335   1.111       .  S
C1330      H1336   1.107       .  S
C1337      C1338   1.428       .  A
C1337      C1342   1.398       .  A
C1337      H1344   1.077       .  S
C1338      C1339   1.439       .  A
C1339      C1346   1.510   1_554  S
C1339      C1340   1.409       .  A
C1340      C1341   1.399       .  A
C1340      H1345   1.085       .  S
C1341      C1342   1.395       .  A
C1342      C1343   1.507       .  S
C1343      H1347   1.111       .  S
C1343      H1348   1.110       .  S
C1343      H1349   1.110       .  S
C1346      H1350   1.100       .  S
C1346      H1351   1.104       .  S
C1346      H1352   1.111       .  S
C1353      C1354   1.420       .  A
C1353      C1358   1.422       .  A
C1353      H1360   1.076       .  S
C1354      C1355   1.438       .  A
C1355      C1362   1.510       .  S
C1355      C1356   1.397       .  A
C1356      C1357   1.404       .  A
C1356      H1361   1.083       .  S
C1357      C1358   1.424       .  A
C1358      C1359   1.502       .  S
C1359      H1363   1.111       .  S
C1359      H1364   1.109       .  S
C1359      H1365   1.110       .  S
C1362      H1366   1.106       .  S
C1362      H1367   1.106   1_556  S
C1362      H1368   1.111       .  S
C1369      C1370   1.414       .  A
C1369      C1374   1.393       .  A
C1369      H1376   1.080       .  S
C1370      C1371   1.453       .  A
C1371      C1378   1.511   1_554  S
C1371      C1372   1.427       .  A
C1372      C1373   1.397       .  A
C1372      H1377   1.083   1_554  S
C1373      C1374   1.420       .  A
C1374      C1375   1.512       .  S
C1375      H1379   1.111       .  S
C1375      H1380   1.111       .  S
C1375      H1381   1.110       .  S
C1378      H1382   1.098       .  S
C1378      H1383   1.107   1_556  S
C1378      H1384   1.111       .  S
C1385      C1386   1.426       .  A
C1385      C1390   1.405       .  A
C1385      H1392   1.077       .  S
C1386      C1387   1.440   1_554  A
C1387      C1394   1.508       .  S
C1387      C1388   1.423   1_556  A
C1388      C1389   1.405       .  A
C1388      H1393   1.084   1_554  S
C1389      C1390   1.412       .  A
C1390      C1391   1.514       .  S
C1391      H1395   1.111       .  S
C1391      H1396   1.110       .  S
C1391      H1397   1.106       .  S
C1394      H1398   1.101       .  S
C1394      H1399   1.111       .  S
C1394      H1400   1.110       .  S
C1401      C1402   1.434       .  A
C1401      C1406   1.410       .  A
C1401      H1408   1.081   1_554  S
C1402      C1403   1.439       .  A
C1403      C1410   1.495       .  S
C1403      C1404   1.412       .  A
C1404      C1405   1.393       .  A
C1404      H1409   1.085       .  S
C1405      C1406   1.402       .  A
C1406      C1407   1.506       .  S
C1407      H1411   1.111       .  S
C1407      H1412   1.110       .  S
C1407      H1413   1.110       .  S
C1410      H1414   1.105       .  S
C1410      H1415   1.106       .  S
C1410      H1416   1.111       .  S
C1417      C1418   1.404       .  A
C1417      C1422   1.398       .  A
C1417      H1424   1.085       .  S
C1418      C1419   1.407       .  A
C1419      C1426   1.506       .  S
C1419      C1420   1.412       .  A
C1420      C1421   1.426       .  A
C1420      H1425   1.078       .  S
C1421      C1422   1.438       .  A
C1422      C1423   1.519       .  S
C1423      H1427   1.110       .  S
C1423      H1428   1.111       .  S
C1423      H1429   1.103   1_556  S
C1426      H1430   1.108       .  S
C1426      H1431   1.110       .  S
C1426      H1432   1.111       .  S
C1433      C1434   1.422       .  A
C1433      C1438   1.409       .  A
C1433      H1440   1.074       .  S
C1434      C1435   1.437       .  A
C1435      C1442   1.506       .  S
C1435      C1436   1.423       .  A
C1436      C1437   1.406       .  A
C1436      H1441   1.080       .  S
C1437      C1438   1.412       .  A
C1438      C1439   1.510       .  S
C1439      H1443   1.111       .  S
C1439      H1444   1.110       .  S
C1439      H1445   1.108   1_556  S
C1442      H1446   1.103       .  S
C1442      H1447   1.110       .  S
C1442      H1448   1.111       .  S
C1449      C1450   1.403   1_554  A
C1449      C1454   1.407       .  A
C1449      H1456   1.074       .  S
C1450      C1451   1.456       .  A
C1451      C1458   1.511       .  S
C1451      C1452   1.431       .  A
C1452      C1453   1.403   1_556  A
C1452      H1457   1.084       .  S
C1453      C1454   1.414       .  A
C1454      C1455   1.493       .  S
C1455      H1459   1.082       .  S
C1455      H1460   1.103       .  S
C1455      H1461   1.108       .  S
C1458      H1462   1.102       .  S
C1458      H1463   1.107       .  S
C1458      H1464   1.112       .  S
