geometry optimzed in LAMMPS
_audit_creation_date              2020-11-30 
_audit_creation_method            'lammps2cif' 
_symmetry_space_group_name_H-M    'P1' 
_symmetry_Int_Tables_number       1 
_symmetry_cell_setting            triclinic 
loop_ 
_symmetry_equiv_pos_as_xyz 
  x,y,z 
_cell_length_a                    25.740534931439786 
_cell_length_b                    25.766855860224563 
_cell_length_c                    104.93393325082323 
_cell_angle_alpha                 90.00013561219716 
_cell_angle_beta                  89.98484792024165 
_cell_angle_gamma                 89.98761275758584 
loop_ 
_atom_site_label 
_atom_site_type_symbol 
_atom_site_fract_x 
_atom_site_fract_y 
_atom_site_fract_z 
_atom_site_charge 
N1          N  0.75393753  0.99999074  0.34919574    -0.24990
N2          N  0.80073600  0.99999146  0.34399620    -0.32840
C3          C  0.83667398  0.99999166  0.35328321     0.03350
C4          C  0.81114072  0.99999106  0.36483219     0.09380
C5          C  0.75881179  0.99999046  0.36197250    -0.03720
H6          H  0.87826025  0.99999204  0.35172218     0.10050
H7          H  0.72673233  0.99998969  0.36863159     0.11250
Cu8        Cu  0.81347144  0.99999191  0.32454200     0.44170
Cu9        Cu  0.68617966  0.99998976  0.33849717     0.41990
Cu10       Cu  0.70043677  0.99998971  0.30381281     0.43880
N11         N  0.81799829  0.99999261  0.30486402    -0.32370
N12         N  0.77730552  0.99999178  0.29715118    -0.26630
C13         C  0.79450957  0.99999239  0.28499002    -0.02730
C14         C  0.84832171  0.99999376  0.28519853     0.09490
C15         C  0.86182602  0.99999377  0.29789926     0.03290
H16         H  0.76976557  0.99999165  0.27666400     0.10940
H17         H  0.90072438  0.99999433  0.30182383     0.10020
N18         N  0.62867667  0.99998819  0.31330967    -0.33820
N19         N  0.62404613  0.99998830  0.32588164    -0.26000
C20         C  0.57332080  0.99998723  0.32899991    -0.01240
C21         C  0.54458221  0.99998641  0.31790495     0.07370
C22         C  0.58068662  0.99998704  0.30812177     0.05460
H23         H  0.55852180  0.99998705  0.33865361     0.10570
H24         H  0.57273548  0.99998671  0.29800695     0.09400
N25         N  0.17603766  0.99997831  0.34912052    -0.24990
N26         N  0.12923184  0.99997813  0.34393223    -0.32840
C27         C  0.09331500  0.99997804  0.35322914     0.03350
C28         C  0.11888237  0.99997813  0.36477102     0.09380
C29         C  0.17119926  0.99997833  0.36189761    -0.03720
H30         H  0.05172469  0.99997813  0.35167998     0.10050
H31         H  0.20329623  0.99997873  0.36854746     0.11250
Cu32       Cu  0.11651717  0.99997849  0.32447828     0.44170
Cu33       Cu  0.24375506  0.99997915  0.33840989     0.41990
Cu34       Cu  0.22963504  0.99998106  0.30373054     0.43880
N35         N  0.11204543  0.99997895  0.30479935    -0.32370
N36         N  0.15274151  0.99997995  0.29708135    -0.26630
C37         C  0.13553093  0.99998033  0.28492218    -0.02730
C38         C  0.08171581  0.99997941  0.28513784     0.09490
C39         C  0.06821774  0.99997864  0.29784038     0.03290
H40         H  0.16027214  0.99998146  0.27659250     0.10940
H41         H  0.02932002  0.99997822  0.30177054     0.09860
N42         N  0.30137871  0.99998166  0.31323576    -0.33820
N43         N  0.30592932  0.99998087  0.32580867    -0.26000
C44         C  0.35662635  0.99998157  0.32894350    -0.01240
C45         C  0.38544556  0.99998287  0.31785928     0.07370
C46         C  0.34941141  0.99998290  0.30806307     0.05460
H47         H  0.37135097  0.99998124  0.33860211     0.10570
H48         H  0.35743966  0.99998379  0.29795087     0.09400
O49         O  0.01988466  0.95683561  0.40209018    -0.70640
O50         O  0.91115916  0.95681348  0.42939017    -0.71620
O51         O  0.91039601  0.95684124  0.40210437    -0.60240
O52         O  0.01919457  0.95680916  0.42937938    -0.68650
O53         O  0.01917995  0.04315596  0.42937935    -0.68200
O54         O  0.91038131  0.04313352  0.40210438    -0.59460
O55         O  0.91114453  0.04316172  0.42939021    -0.71970
O56         O  0.01986997  0.04312897  0.40209018    -0.70750
Cu57       Cu  0.96516108  0.95377411  0.41569636     1.04560
Cu58       Cu  0.96514539  0.04619581  0.41569636     1.04330
C59         C  0.03612913  0.99998149  0.39764412     0.95560
C60         C  0.89623480  0.99998831  0.43407702     0.94700
C61         C  0.89411161  0.99998809  0.39766497     0.86840
C62         C  0.03410597  0.99998193  0.43406526     0.93110
N63         N  0.75354240  0.99997901  0.66817634    -0.24990
N64         N  0.80032779  0.99998071  0.67337689    -0.32840
C65         C  0.83628945  0.99998054  0.66409090     0.03350
C66         C  0.81078602  0.99997864  0.65254142     0.09380
C67         C  0.75844949  0.99997772  0.65539968    -0.03720
H68         H  0.87787165  0.99998220  0.66565298     0.10050
H69         H  0.72638725  0.99997668  0.64873976     0.11250
Cu70       Cu  0.81301903  0.99998465  0.69283075     0.44170
Cu71       Cu  0.68575826  0.99997982  0.67887379     0.41990
Cu72       Cu  0.69994825  0.99998883  0.71355891     0.43880
N73         N  0.81750771  0.99999029  0.71250824    -0.32370
N74         N  0.77679870  0.99999185  0.72022106    -0.26630
C75         C  0.79397573  0.99999549  0.73238218    -0.02730
C76         C  0.84778789  0.99999639  0.73217355     0.09490
C77         C  0.86132032  0.99999292  0.71947290     0.03290
H78         H  0.76921360  0.99999711  0.74070817     0.10940
H79         H  0.90022717  0.99999208  0.71554836     0.10020
N80         N  0.62821069  0.99998599  0.70406270    -0.33820
N81         N  0.62360239  0.99998266  0.69149083    -0.26000
C82         C  0.57288240  0.99998212  0.68837398    -0.01240
C83         C  0.54412581  0.99998525  0.69946986     0.07370
C84         C  0.58021259  0.99998766  0.70925196     0.05460
H85         H  0.55809941  0.99997992  0.67872071     0.10570
H86         H  0.57224438  0.99999067  0.71936700     0.09400
O87         O  0.91015504  0.95683536  0.61527460    -0.70640
O88         O  0.01901020  0.95681181  0.58799953    -0.71620
O89         O  0.01964411  0.95683868  0.61528818    -0.60240
O90         O  0.91097706  0.95680720  0.58798957    -0.68650
O91         O  0.91095538  0.04315577  0.58798961    -0.68200
O92         O  0.01962244  0.04313231  0.61528818    -0.59460
O93         O  0.01898851  0.04315879  0.58799956    -0.71970
O94         O  0.91013340  0.04312775  0.61527464    -0.70750
Cu95       Cu  0.96494942  0.95377239  0.60168276     1.04560
Cu96       Cu  0.96492622  0.04619452  0.60168278     1.04330
C97         C  0.89385514  0.99998100  0.61971340     0.95560
C98         C  0.03392648  0.99998580  0.58331341     0.94700
C99         C  0.03587671  0.99998611  0.61973375     0.86840
C100        C  0.89606013  0.99998096  0.58330284     0.93110
N101        N  0.17566760  0.99999118  0.66825778    -0.24990
N102        N  0.12884858  0.99999119  0.67344482    -0.32840
C103        C  0.09295611  0.99999057  0.66414704     0.03350
C104        C  0.11855434  0.99999014  0.65260605     0.09380
C105        C  0.17086332  0.99999053  0.65548066    -0.03720
H106        H  0.05136175  0.99999015  0.66569503     0.10050
H107        H  0.20297775  0.99999008  0.64883171     0.11250
Cu108      Cu  0.11608591  0.99999108  0.69289806     0.44170
Cu109      Cu  0.24335374  0.99999123  0.67897001     0.41990
Cu110      Cu  0.22915281  0.99998957  0.71364875     0.43880
N111        N  0.11156646  0.99998949  0.71257648    -0.32370
N112        N  0.15224264  0.99998892  0.72029551    -0.26630
C113        C  0.13500078  0.99998786  0.73245417    -0.02730
C114        C  0.08118657  0.99998764  0.73223693     0.09490
C115        C  0.06772092  0.99998877  0.71953419     0.03290
H116        H  0.15972026  0.99998744  0.74078451     0.10940
H117        H  0.02883335  0.99998922  0.71560302     0.10020
N118        N  0.30091750  0.99998967  0.70414433    -0.33820
N119        N  0.30549566  0.99999031  0.69157147    -0.26000
C120        C  0.35619861  0.99998982  0.68843651    -0.01240
C121        C  0.38499315  0.99998883  0.69952061     0.07370
C122        C  0.34893889  0.99998876  0.70931701     0.05460
H123        H  0.37094377  0.99998998  0.67877788     0.10570
H124        H  0.35694575  0.99998793  0.71942919     0.09400
N125        N  0.76246757  0.99998581  0.48310175    -0.24990
N126        N  0.80817070  0.99998589  0.48887990    -0.32840
C127        C  0.84560456  0.99998761  0.47989841     0.03350
C128        C  0.82166011  0.99998871  0.46809529     0.09380
C129        C  0.76928540  0.99998748  0.47044162    -0.03720
H130        H  0.88692561  0.99998784  0.48181920     0.10050
H131        H  0.73823937  0.99998759  0.46349539     0.11250
Cu132      Cu  0.81650670  0.99998350  0.50868947     0.44170
Cu133      Cu  0.69179388  0.99998346  0.49200057     0.41990
Cu134      Cu  0.69176516  0.99997978  0.52537881     0.43880
N135        N  0.80813220  0.99998108  0.52849909    -0.32370
N136        N  0.76241669  0.99997966  0.53427715    -0.26630
C137        C  0.76920541  0.99997866  0.54693719    -0.02730
C138        C  0.82157414  0.99997946  0.54928363     0.09490
C139        C  0.84554596  0.99998101  0.53748073     0.03290
H140        H  0.73814360  0.99997770  0.55388323     0.10940
H141        H  0.88687138  0.99998223  0.53556024     0.10020
N142        N  0.62464064  0.99998143  0.51497552    -0.33820
N143        N  0.62464999  0.99998275  0.50240653    -0.26000
C144        C  0.57548962  0.99998459  0.49818295    -0.01240
C145        C  0.54355815  0.99998439  0.50869305     0.07370
C146        C  0.57547492  0.99998240  0.51920151     0.05460
H147        H  0.56408166  0.99998645  0.48826270     0.10570
H148        H  0.56405365  0.99998217  0.52912237     0.09400
N149        N  0.96350146  0.78854334  0.84939827    -0.24990
N150        N  0.96358497  0.83527996  0.84419610    -0.32840
C151        C  0.96359868  0.87120562  0.85347694     0.03350
C152        C  0.96352014  0.84572929  0.86502572     0.09380
C153        C  0.96345970  0.79344347  0.86217442    -0.03720
H154        H  0.96366804  0.91274397  0.85191134     0.10050
H155        H  0.96339733  0.76141644  0.86883728     0.11250
Cu156      Cu  0.96369951  0.84797106  0.82475086     0.44170
Cu157      Cu  0.96347130  0.72088314  0.83869118     0.41990
Cu158      Cu  0.96371590  0.73520830  0.80398543     0.43880
N159        N  0.96384521  0.85264443  0.80508397    -0.32370
N160        N  0.96385461  0.81206234  0.79734721    -0.26630
C161        C  0.96397451  0.82937973  0.78519676    -0.02730
C162        C  0.96404381  0.88314552  0.78544206     0.09490
C163        C  0.96395787  0.89649774  0.79815083     0.03290
H164        H  0.96401183  0.80474914  0.77685366     0.10940
H165        H  0.96397954  0.93531348  0.80210328     0.10020
N166        N  0.96358467  0.66350043  0.81348632    -0.33820
N167        N  0.96349464  0.65887283  0.82605864    -0.26000
C168        C  0.96344171  0.60820395  0.82917594    -0.01240
C169        C  0.96350069  0.57948470  0.81808207     0.07370
C170        C  0.96359120  0.61554855  0.80829859     0.05460
H171        H  0.96337479  0.59342942  0.83882973     0.10570
H172        H  0.96366504  0.60759420  0.79818398     0.09400
C173        C  0.96434243  0.99999395  0.75885309    -0.00180
N174        N  0.96351272  0.21144645  0.84939835    -0.24990
N175        N  0.96359460  0.16470969  0.84419616    -0.32840
C176        C  0.96360778  0.12878419  0.85347701     0.03350
C177        C  0.96353059  0.15426074  0.86502580     0.09380
C178        C  0.96347149  0.20654655  0.86217450    -0.03720
H179        H  0.96367511  0.08724579  0.85191141     0.10050
H180        H  0.96340970  0.23857372  0.86883736     0.11250
Cu181      Cu  0.96370534  0.15201823  0.82475090     0.44170
Cu182      Cu  0.96348198  0.27910654  0.83869125     0.41990
Cu183      Cu  0.96371633  0.26478067  0.80398548     0.43880
N184        N  0.96384403  0.14734450  0.80508398    -0.32370
N185        N  0.96385141  0.18792649  0.79734724    -0.26630
C186        C  0.96396673  0.17060891  0.78519678    -0.02730
C187        C  0.96403489  0.11684309  0.78544205     0.09490
C188        C  0.96395341  0.10349106  0.79815081     0.03290
H189        H  0.96400211  0.19523941  0.77685369     0.10940
H190        H  0.96397630  0.06467536  0.80210325     0.10020
N191        N  0.96358803  0.33648874  0.81348639    -0.33820
N192        N  0.96350181  0.34111664  0.82605871    -0.26000
C193        C  0.96344899  0.39178563  0.82917599    -0.01240
C194        C  0.96350406  0.42050460  0.81808212     0.07370
C195        C  0.96359214  0.38444050  0.80829864     0.05460
H196        H  0.96338434  0.40656040  0.83882978     0.10570
H197        H  0.96366230  0.39239459  0.79818403     0.09400
N198        N  0.96414689  0.78853872  0.16797114    -0.24990
N199        N  0.96422723  0.83527553  0.17317331    -0.32840
C200        C  0.96422919  0.87120084  0.16389239     0.03350
C201        C  0.96414657  0.84572418  0.15234361     0.09380
C202        C  0.96409538  0.79343848  0.15519498    -0.03720
H203        H  0.96428986  0.91273923  0.16545792     0.10050
H204        H  0.96402928  0.76141119  0.14853216     0.11250
Cu205      Cu  0.96434511  0.84796833  0.19261871     0.44170
Cu206      Cu  0.96412584  0.72087796  0.17867799     0.41990
Cu207      Cu  0.96436457  0.73520499  0.21338361     0.43880
N208        N  0.96448817  0.85264216  0.21228585    -0.32370
N209        N  0.96449812  0.81205947  0.22002238    -0.26630
C210        C  0.96461263  0.82937612  0.23217295    -0.02730
C211        C  0.96467803  0.88314220  0.23192810     0.09490
C212        C  0.96459518  0.89649508  0.21921931     0.03290
H213        H  0.96464756  0.80474480  0.24051587     0.10940
H214        H  0.96461351  0.93531113  0.21526707     0.10020
N215        N  0.96423764  0.66349569  0.20388278    -0.33820
N216        N  0.96415025  0.65886756  0.19131047    -0.26000
C217        C  0.96409837  0.60819848  0.18819322    -0.01240
C218        C  0.96415527  0.57947934  0.19928708     0.07370
C219        C  0.96424344  0.61554379  0.20907053     0.05460
H220        H  0.96403263  0.59342370  0.17853943     0.10570
H221        H  0.96431449  0.60758976  0.21918512     0.09400
O222        O  0.00674599  0.05469128  0.90221263    -0.70640
O223        O  0.00681037  0.94601164  0.92948065    -0.71620
O224        O  0.00674253  0.94527805  0.90221249    -0.60240
O225        O  0.00681373  0.05395691  0.92948080    -0.68650
O226        O  0.92037448  0.05397833  0.92949377    -0.68200
O227        O  0.92035877  0.94529925  0.90222543    -0.59460
O228        O  0.92037113  0.94603276  0.92949364    -0.71970
O229        O  0.92036224  0.05471256  0.90222552    -0.70750
Cu230      Cu  0.00983433  0.99998374  0.91580114     1.04560
Cu231      Cu  0.91731028  0.00000651  0.91581503     1.04330
C232        C  0.96354839  0.07100719  0.89779106     0.95560
C233        C  0.96359701  0.93106897  0.93416116     0.94700
C234        C  0.96354389  0.92898339  0.89779094     0.86840
C235        C  0.96360125  0.06892054  0.93416138     0.93110
N236        N  0.96413416  0.21143833  0.16797180    -0.24990
N237        N  0.96421357  0.16470143  0.17317389    -0.32840
C238        C  0.96421507  0.12877626  0.16389290     0.03350
C239        C  0.96413308  0.15425321  0.15234418     0.09380
C240        C  0.96408281  0.20653884  0.15519565    -0.03720
H241        H  0.96427544  0.08723782  0.16545834     0.10050
H242        H  0.96401789  0.23856627  0.14853289     0.11250
Cu243      Cu  0.96433157  0.15200877  0.19261926     0.44170
Cu244      Cu  0.96411516  0.27909876  0.17867874     0.41990
Cu245      Cu  0.96435610  0.26477275  0.21338430     0.43880
N246        N  0.96447460  0.14733530  0.21228639    -0.32370
N247        N  0.96448648  0.18791801  0.22002297    -0.26630
C248        C  0.96460085  0.17060122  0.23217352    -0.02730
C249        C  0.96466390  0.11683509  0.23192860     0.09490
C250        C  0.96458014  0.10348231  0.21921979     0.03290
H251        H  0.96463774  0.19523248  0.24051648     0.10940
H252        H  0.96459740  0.06466627  0.21526750     0.10020
N253        N  0.96423124  0.33648198  0.20388341    -0.33820
N254        N  0.96414287  0.34110948  0.19131110    -0.26000
C255        C  0.96409272  0.39177833  0.18819370    -0.01240
C256        C  0.96415181  0.42049814  0.19928748     0.07370
C257        C  0.96423945  0.38443424  0.20907103     0.05460
H258        H  0.96402675  0.40655250  0.17853987     0.10570
H259        H  0.96431178  0.39238890  0.21918560     0.09400
O260        O  0.00726918  0.94527550  0.11514263    -0.70640
O261        O  0.00724080  0.05395574  0.08787443    -0.71620
O262        O  0.00726380  0.05468937  0.11514285    -0.60240
O263        O  0.00724614  0.94601093  0.08787417    -0.68650
O264        O  0.92080685  0.94602578  0.08788996    -0.68200
O265        O  0.92088005  0.05470325  0.11515823    -0.59460
O266        O  0.92080152  0.05396966  0.08789017    -0.71970
O267        O  0.92088544  0.94529049  0.11515801    -0.70750
Cu268      Cu  0.01031151  0.99998237  0.10155305     1.04560
Cu269      Cu  0.91778745  0.99999779  0.10156968     1.04330
C270        C  0.96408624  0.92897761  0.11957831     0.95560
C271        C  0.96401121  0.06891495  0.08320811     0.94700
C272        C  0.96407925  0.07100142  0.11957859     0.86840
C273        C  0.96401797  0.93106650  0.08320780     0.93110
N274        N  0.96358011  0.79696276  0.98309207    -0.24990
N275        N  0.96366542  0.84259669  0.98888246    -0.32840
C276        C  0.96369467  0.88002840  0.97991543     0.03350
C277        C  0.96362496  0.85615721  0.96810742     0.09380
C278        C  0.96355320  0.80382328  0.97043414    -0.03720
H279        H  0.96376201  0.92129755  0.98184982     0.10050
H280        H  0.96348662  0.77283977  0.96347752     0.11250
Cu281      Cu  0.96374220  0.85087801  0.00868387     0.44170
Cu282      Cu  0.96350517  0.72636914  0.99198357     0.41990
Cu283      Cu  0.96363904  0.72637502  0.02538506     0.43880
N284        N  0.96380823  0.84260183  0.02848540    -0.32370
N285        N  0.96377150  0.79696857  0.03427604    -0.26630
C286        C  0.96382738  0.80382982  0.04693389    -0.02730
C287        C  0.96390350  0.85616371  0.04926038     0.09490
C288        C  0.96388883  0.88003432  0.03745226     0.03290
H289        H  0.96380838  0.77284676  0.05389061     0.10940
H290        H  0.96392921  0.92130338  0.03551772     0.10020
N291        N  0.96350704  0.65935144  0.01496985    -0.33820
N292        N  0.96345639  0.65934876  0.00240046    -0.26000
C293        C  0.96338945  0.61023845  0.99817649    -0.01240
C294        C  0.96339739  0.57835859  0.00868630     0.07370
C295        C  0.96347389  0.61024323  0.01919520     0.05460
H296        H  0.96334949  0.59883121  0.98825619     0.10570
H297        H  0.96351350  0.59884068  0.02911583     0.09400
N298        N  0.96358578  0.20302290  0.98309298    -0.24990
N299        N  0.96366943  0.15738873  0.98888320    -0.32840
C300        C  0.96369914  0.11995743  0.97991602     0.03350
C301        C  0.96363153  0.14382928  0.96810810     0.09380
C302        C  0.96356044  0.19616307  0.97043503    -0.03720
H303        H  0.96376504  0.07868815  0.98185024     0.10050
H304        H  0.96349501  0.22714698  0.96347854     0.11250
Cu305      Cu  0.96374261  0.14910751  0.00868462     0.44170
Cu306      Cu  0.96351017  0.27361575  0.99198478     0.41990
Cu307      Cu  0.96363885  0.27361126  0.02538629     0.43880
N308        N  0.96380459  0.15738376  0.02848617    -0.32370
N309        N  0.96376767  0.20301685  0.03427698    -0.26630
C310        C  0.96382077  0.19615491  0.04693482    -0.02730
C311        C  0.96389517  0.14382084  0.04926112     0.09490
C312        C  0.96388254  0.11995085  0.03745290     0.03290
H313        H  0.96380141  0.22713765  0.05389166     0.10940
H314        H  0.96392282  0.07868186  0.03551819     0.10020
N315        N  0.96350879  0.34063467  0.01497091    -0.33820
N316        N  0.96345994  0.34063637  0.00240152    -0.26000
C317        C  0.96339310  0.38974624  0.99817733    -0.01240
C318        C  0.96339924  0.42162707  0.00868697     0.07370
C319        C  0.96347454  0.38974337  0.01919604     0.05460
H320        H  0.96335416  0.40115253  0.98825697     0.10570
H321        H  0.96351227  0.40114688  0.02911661     0.09400
C322        C  0.96493667  0.99998797  0.25851876    -0.00180
N323        N  0.16778087  0.99998674  0.48309704    -0.24990
N324        N  0.12206426  0.99998508  0.48887491    -0.32840
C325        C  0.08465285  0.99998248  0.47989164     0.03350
C326        C  0.10862404  0.99998244  0.46808756     0.09380
C327        C  0.16099389  0.99998522  0.47043631    -0.03720
H328        H  0.04332753  0.99998088  0.48181155     0.10050
H329        H  0.19205850  0.99998621  0.46349091     0.11250
Cu330      Cu  0.11369260  0.99998644  0.50868926     0.44170
Cu331      Cu  0.23843253  0.99999077  0.49199940     0.41990
Cu332      Cu  0.23838630  0.99999235  0.52538384     0.43880
N333        N  0.12200939  0.99998800  0.52850391    -0.32370
N334        N  0.16771041  0.99999020  0.53428325    -0.26630
C335        C  0.16088984  0.99999041  0.54694370    -0.02730
C336        C  0.10851410  0.99998828  0.54929082     0.09490
C337        C  0.08457395  0.99998677  0.53748604     0.03290
H338        H  0.19193595  0.99999188  0.55389004     0.10940
H339        H  0.04325367  0.99998481  0.53556489     0.10020
N340        N  0.30553216  0.99999293  0.51497767    -0.33820
N341        N  0.30554944  0.99999242  0.50240848    -0.26000
C342        C  0.35471901  0.99999169  0.49818479    -0.01240
C343        C  0.38662901  0.99999180  0.50869457     0.07370
C344        C  0.35469011  0.99999255  0.51920321     0.05460
H345        H  0.36614782  0.99999044  0.48826447     0.10570
H346        H  0.36609149  0.99999214  0.52912399     0.09400
C347        C  0.96337483  0.52320711  0.00868708    -0.10970
C348        C  0.96337540  0.47677856  0.00868736    -0.12530
C349        C  0.96396159  0.88003479  0.06156752    -0.10970
C350        C  0.96399558  0.90051403  0.07185864    -0.12530
C351        C  0.96398607  0.09946854  0.07185914    -0.10970
C352        C  0.96395178  0.11994891  0.06156816    -0.12530
C353        C  0.96487431  0.04637226  0.25030158    -0.10970
C354        C  0.96478827  0.08095333  0.24249097    -0.12530
C355        C  0.96409656  0.10597064  0.13019596    -0.10970
C356        C  0.96411149  0.13043449  0.13997935    -0.12530
C357        C  0.96361217  0.90051210  0.94550964    -0.10970
C358        C  0.96362190  0.88002890  0.95580030    -0.12530
C359        C  0.96361816  0.09947639  0.94551004    -0.10970
C360        C  0.96362852  0.11995845  0.95580086    -0.12530
C361        C  0.96414886  0.47648414  0.20025122    -0.10970
C362        C  0.96414988  0.52349341  0.20025107    -0.12530
C363        C  0.96488361  0.95360434  0.25030131    -0.10970
C364        C  0.96480110  0.91902373  0.24249054    -0.12530
C365        C  0.96410690  0.89400773  0.13019554    -0.10970
C366        C  0.96412371  0.86954331  0.13997883    -0.12530
C367        C  0.96352886  0.13044139  0.87739054    -0.10970
C368        C  0.96353508  0.10597688  0.88717381    -0.12530
C369        C  0.96416688  0.08096059  0.77488007    -0.10970
C370        C  0.96426292  0.04637798  0.76707002    -0.12530
C371        C  0.96349815  0.47649013  0.81711817    -0.10970
C372        C  0.96349714  0.52349915  0.81711815    -0.12530
C373        C  0.96417785  0.91902786  0.77488011    -0.10970
C374        C  0.96427205  0.95361029  0.76707007    -0.12530
C375        C  0.96352017  0.86954884  0.87739044    -0.10970
C376        C  0.96352829  0.89401357  0.88717369    -0.12530
C377        C  0.48833605  0.99998711  0.50869455    -0.10970
C378        C  0.44185143  0.99998945  0.50869527    -0.12530
C379        C  0.01081088  0.99998912  0.75064809    -0.10970
C380        C  0.04537054  0.99998761  0.74282121    -0.12530
C381        C  0.07063208  0.99998748  0.63040077    -0.10970
C382        C  0.09486626  0.99998874  0.64022225    -0.12530
C383        C  0.84535546  0.99997952  0.56160632    -0.10970
C384        C  0.86566959  0.99997991  0.57192061    -0.12530
C385        C  0.06435829  0.99998680  0.57193084    -0.10970
C386        C  0.08470041  0.99998748  0.56161557    -0.12530
C387        C  0.48808944  0.99998654  0.70044233    -0.10970
C388        C  0.44103558  0.99998762  0.70046261    -0.12530
C389        C  0.88353481  0.99999851  0.74276596    -0.10970
C390        C  0.91800451  0.99999823  0.75061136    -0.12530
C391        C  0.83459820  0.99997903  0.64016704    -0.10970
C392        C  0.85896947  0.99997980  0.63036164    -0.12530
C393        C  0.86581520  0.99998967  0.44545898    -0.10970
C394        C  0.84547208  0.99998971  0.45577270    -0.12530
C395        C  0.06451812  0.99998078  0.44544721    -0.10970
C396        C  0.08484082  0.99998100  0.45576222    -0.12530
C397        C  0.01138713  0.99998288  0.26672436    -0.10970
C398        C  0.04592672  0.99998064  0.27455234    -0.12530
C399        C  0.07090500  0.99997981  0.38697613    -0.10970
C400        C  0.09516130  0.99997883  0.37715452    -0.12530
C401        C  0.44149125  0.99998411  0.31691651    -0.10970
C402        C  0.48854594  0.99998516  0.31693465    -0.12530
C403        C  0.91857973  0.99999231  0.26676052    -0.10970
C404        C  0.88409259  0.99999369  0.27460600    -0.12530
C405        C  0.83491879  0.99999044  0.37720761    -0.10970
C406        C  0.85925814  0.99998959  0.38701473    -0.12530
loop_ 
_geom_bond_atom_site_label_1 
_geom_bond_atom_site_label_2 
_geom_bond_distance 
_geom_bond_site_symmetry_2 
_ccdc_geom_bond_type 
N1            N2   1.322       .  A
N1            C5   1.347       .  A
N1           Cu9   2.074       .  S
N2            C3   1.344       .  A
N2           Cu8   2.067       .  S
C3            C4   1.378       .  A
C3            H6   1.083       .  S
C4            C5   1.380       .  A
C4          C405   1.436       .  S
C5            H7   1.082       .  S
Cu8          N11   2.068       .  S
Cu9          N19   2.076       .  S
Cu10         N12   2.098       .  S
Cu10         N18   2.099       .  S
N11          N12   1.324       .  A
N11          C15   1.344       .  A
N12          C13   1.351       .  A
C13          C14   1.385       .  A
C13          H16   1.081       .  S
C14          C15   1.377       .  A
C14         C404   1.443       .  S
C15          H17   1.083       .  S
N18          N19   1.325       .  A
N18          C22   1.350       .  A
N19          C20   1.346       .  A
C20          C21   1.380       .  A
C20          H23   1.082       .  S
C21          C22   1.385       .  A
C21         C402   1.446       .  S
C22          H24   1.081       .  S
N25          N26   1.322       .  A
N25          C29   1.346       .  A
N25         Cu33   2.074       .  S
N26          C27   1.344       .  A
N26         Cu32   2.068       .  S
C27          C28   1.379       .  A
C27          H30   1.083       .  S
C28          C29   1.380       .  A
C28         C400   1.436       .  S
C29          H31   1.082       .  S
Cu32         N35   2.068       .  S
Cu33         N43   2.076       .  S
Cu34         N36   2.099       .  S
Cu34         N42   2.099       .  S
N35          N36   1.324       .  A
N35          C39   1.344       .  A
N36          C37   1.351       .  A
C37          C38   1.385       .  A
C37          H40   1.081       .  S
C38          C39   1.377       .  A
C38         C398   1.443       .  S
C39          H41   1.083       .  S
N42          N43   1.325       .  A
N42          C46   1.350       .  A
N43          C44   1.346       .  A
C44          C45   1.379       .  A
C44          H47   1.082       .  S
C45          C46   1.385       .  A
C45         C401   1.446       .  S
C46          H48   1.081       .  S
O49         Cu57   2.007   1_455  S
O49          C59   1.276       .  A
O50         Cu57   2.001       .  S
O50          C60   1.275       .  A
O51         Cu57   2.007       .  S
O51          C61   1.276       .  A
O52         Cu57   2.001   1_455  S
O52          C62   1.275       .  A
O53         Cu58   2.001   1_455  S
O53          C62   1.275   1_545  A
O54         Cu58   2.007       .  S
O54          C61   1.276   1_545  A
O55         Cu58   2.001       .  S
O55          C60   1.275   1_545  A
O56         Cu58   2.007   1_455  S
O56          C59   1.276   1_545  A
Cu57        Cu58   2.381   1_565  S
C59         C399   1.433       .  S
C60         C393   1.428       .  S
C61         C406   1.433       .  S
C62         C395   1.428       .  S
N63          N64   1.322       .  A
N63          C67   1.347       .  A
N63         Cu71   2.074       .  S
N64          C65   1.344       .  A
N64         Cu70   2.067       .  S
C65          C66   1.378       .  A
C65          H68   1.083       .  S
C66          C67   1.380       .  A
C66         C391   1.436       .  S
C67          H69   1.082       .  S
Cu70         N73   2.068       .  S
Cu71         N81   2.076       .  S
Cu72         N74   2.098       .  S
Cu72         N80   2.099       .  S
N73          N74   1.324       .  A
N73          C77   1.344       .  A
N74          C75   1.351       .  A
C75          C76   1.385       .  A
C75          H78   1.081       .  S
C76          C77   1.377       .  A
C76         C389   1.443       .  S
C77          H79   1.083       .  S
N80          N81   1.325       .  A
N80          C84   1.350       .  A
N81          C82   1.346       .  A
C82          C83   1.380       .  A
C82          H85   1.082       .  S
C83          C84   1.385       .  A
C83         C387   1.446       .  S
C84          H86   1.081       .  S
O87         Cu95   2.007       .  S
O87          C97   1.276       .  A
O88         Cu95   2.001   1_455  S
O88          C98   1.275       .  A
O89         Cu95   2.007   1_455  S
O89          C99   1.276       .  A
O90         Cu95   2.000       .  S
O90         C100   1.275       .  A
O91         Cu96   2.000       .  S
O91         C100   1.275   1_545  A
O92         Cu96   2.007   1_455  S
O92          C99   1.276   1_545  A
O93         Cu96   2.001   1_455  S
O93          C98   1.275   1_545  A
O94         Cu96   2.007       .  S
O94          C97   1.276   1_545  A
Cu95        Cu96   2.381   1_565  S
C97         C392   1.433       .  S
C98         C385   1.428       .  S
C99         C381   1.433       .  S
C100        C384   1.428       .  S
N101        N102   1.322       .  A
N101        C105   1.346       .  A
N101       Cu109   2.074       .  S
N102        C103   1.344       .  A
N102       Cu108   2.067       .  S
C103        C104   1.379       .  A
C103        H106   1.083       .  S
C104        C105   1.380       .  A
C104        C382   1.436       .  S
C105        H107   1.082       .  S
Cu108       N111   2.068       .  S
Cu109       N119   2.076       .  S
Cu110       N112   2.099       .  S
Cu110       N118   2.099       .  S
N111        N112   1.324       .  A
N111        C115   1.344       .  A
N112        C113   1.351       .  A
C113        C114   1.385       .  A
C113        H116   1.081       .  S
C114        C115   1.377       .  A
C114        C380   1.443       .  S
C115        H117   1.083       .  S
N118        N119   1.325       .  A
N118        C122   1.350       .  A
N119        C120   1.346       .  A
C120        C121   1.379       .  A
C120        H123   1.082       .  S
C121        C122   1.385       .  A
C121        C388   1.446       .  S
C122        H124   1.081       .  S
N125        N126   1.324       .  A
N125        C129   1.340       .  A
N125       Cu133   2.045       .  S
N126        C127   1.348       .  A
N126       Cu132   2.090       .  S
C127        C128   1.384       .  A
C127        H130   1.083       .  S
C128        C129   1.370       .  A
C128        C394   1.431       .  S
C129        H131   1.082       .  S
Cu132       N135   2.090       .  S
Cu133       N143   2.044       .  S
Cu134       N136   2.045       .  S
Cu134       N142   2.044       .  S
N135        N136   1.324       .  A
N135        C139   1.348       .  A
N136        C137   1.340       .  A
C137        C138   1.370       .  A
C137        H140   1.082       .  S
C138        C139   1.384       .  A
C138        C383   1.431       .  S
C139        H141   1.083       .  S
N142        N143   1.319       .  A
N142        C146   1.341       .  A
N143        C144   1.341       .  A
C144        C145   1.375       .  A
C144        H147   1.082       .  S
C145        C146   1.375       .  A
C145        C377   1.421       .  S
C146        H148   1.082       .  S
N149        N150   1.322       .  A
N149        C153   1.347       .  A
N149       Cu157   2.074       .  S
N150        C151   1.344       .  A
N150       Cu156   2.067       .  S
C151        C152   1.378       .  A
C151        H154   1.083       .  S
C152        C153   1.380       .  A
C152        C375   1.435       .  S
C153        H155   1.082       .  S
Cu156       N159   2.067       .  S
Cu157       N167   2.076       .  S
Cu158       N160   2.099       .  S
Cu158       N166   2.100       .  S
N159        N160   1.324       .  A
N159        C163   1.344       .  A
N160        C161   1.351       .  A
C161        C162   1.386       .  A
C161        H164   1.081       .  S
C162        C163   1.377       .  A
C162        C373   1.443       .  S
C163        H165   1.083       .  S
N166        N167   1.325       .  A
N166        C170   1.350       .  A
N167        C168   1.346       .  A
C168        C169   1.379       .  A
C168        H171   1.082       .  S
C169        C170   1.385       .  A
C169        C372   1.446       .  S
C170        H172   1.081       .  S
C173        C370   1.474   1_565  S
C173        C374   1.474       .  S
C173        C379   1.474   1_655  S
C173        C390   1.473       .  S
N174        N175   1.322       .  A
N174        C178   1.347       .  A
N174       Cu182   2.074       .  S
N175        C176   1.344       .  A
N175       Cu181   2.067       .  S
C176        C177   1.378       .  A
C176        H179   1.083       .  S
C177        C178   1.380       .  A
C177        C367   1.435       .  S
C178        H180   1.082       .  S
Cu181       N184   2.067       .  S
Cu182       N192   2.076       .  S
Cu183       N185   2.099       .  S
Cu183       N191   2.100       .  S
N184        N185   1.324       .  A
N184        C188   1.344       .  A
N185        C186   1.351       .  A
C186        C187   1.386       .  A
C186        H189   1.081       .  S
C187        C188   1.377       .  A
C187        C369   1.443       .  S
C188        H190   1.083       .  S
N191        N192   1.325       .  A
N191        C195   1.350       .  A
N192        C193   1.346       .  A
C193        C194   1.379       .  A
C193        H196   1.082       .  S
C194        C195   1.385       .  A
C194        C371   1.446       .  S
C195        H197   1.081       .  S
N198        N199   1.322       .  A
N198        C202   1.347       .  A
N198       Cu206   2.074       .  S
N199        C200   1.344       .  A
N199       Cu205   2.067       .  S
C200        C201   1.378       .  A
C200        H203   1.083       .  S
C201        C202   1.380       .  A
C201        C366   1.435       .  S
C202        H204   1.082       .  S
Cu205       N208   2.067       .  S
Cu206       N216   2.076       .  S
Cu207       N209   2.099       .  S
Cu207       N215   2.100       .  S
N208        N209   1.324       .  A
N208        C212   1.344       .  A
N209        C210   1.351       .  A
C210        C211   1.386       .  A
C210        H213   1.081       .  S
C211        C212   1.377       .  A
C211        C364   1.443       .  S
C212        H214   1.083       .  S
N215        N216   1.325       .  A
N215        C219   1.350       .  A
N216        C217   1.346       .  A
C217        C218   1.379       .  A
C217        H220   1.082       .  S
C218        C219   1.385       .  A
C218        C362   1.446       .  S
C219        H221   1.081       .  S
O222       Cu230   2.007   1_545  S
O222        C232   1.276   1_455  A
O223       Cu230   2.000       .  S
O223        C233   1.275   1_455  A
O224       Cu230   2.007       .  S
O224        C234   1.276   1_455  A
O225       Cu230   2.000   1_545  S
O225        C235   1.275   1_455  A
O226       Cu231   2.000       .  S
O226        C235   1.275       .  A
O227       Cu231   2.007   1_565  S
O227        C234   1.276       .  A
O228       Cu231   2.000   1_565  S
O228        C233   1.275       .  A
O229       Cu231   2.007       .  S
O229        C232   1.276       .  A
Cu230      Cu231   2.382   1_465  S
C232        C368   1.433       .  S
C233        C357   1.428       .  S
C234        C376   1.433       .  S
C235        C359   1.428       .  S
N236        N237   1.322       .  A
N236        C240   1.347       .  A
N236       Cu244   2.074       .  S
N237        C238   1.344       .  A
N237       Cu243   2.067       .  S
C238        C239   1.378       .  A
C238        H241   1.083       .  S
C239        C240   1.380       .  A
C239        C356   1.435       .  S
C240        H242   1.082       .  S
Cu243       N246   2.067       .  S
Cu244       N254   2.076       .  S
Cu245       N247   2.099       .  S
Cu245       N253   2.100       .  S
N246        N247   1.324       .  A
N246        C250   1.344       .  A
N247        C248   1.351       .  A
C248        C249   1.386       .  A
C248        H251   1.081       .  S
C249        C250   1.377       .  A
C249        C354   1.443       .  S
C250        H252   1.083       .  S
N253        N254   1.325       .  A
N253        C257   1.350       .  A
N254        C255   1.346       .  A
C255        C256   1.379       .  A
C255        H258   1.082       .  S
C256        C257   1.385       .  A
C256        C361   1.446       .  S
C257        H259   1.081       .  S
O260       Cu268   2.007       .  S
O260        C270   1.276   1_455  A
O261       Cu268   2.000   1_545  S
O261        C271   1.275   1_455  A
O262       Cu268   2.007   1_545  S
O262        C272   1.276   1_455  A
O263       Cu268   2.000       .  S
O263        C273   1.275   1_455  A
O264       Cu269   2.000       .  S
O264        C273   1.275       .  A
O265       Cu269   2.007   1_545  S
O265        C272   1.276       .  A
O266       Cu269   2.000   1_545  S
O266        C271   1.275       .  A
O267       Cu269   2.007       .  S
O267        C270   1.276       .  A
Cu268      Cu269   2.382   1_455  S
C270        C365   1.433       .  S
C271        C351   1.428       .  S
C272        C355   1.433       .  S
C273        C350   1.428       .  S
N274        N275   1.324       .  A
N274        C278   1.340       .  A
N274       Cu282   2.044       .  S
N275        C276   1.347       .  A
N275       Cu281   2.089   1_556  S
C276        C277   1.383       .  A
C276        H279   1.083       .  S
C277        C278   1.370       .  A
C277        C358   1.430       .  S
C278        H280   1.082       .  S
Cu281       N284   2.089       .  S
Cu282       N292   2.044   1_556  S
Cu283       N285   2.044       .  S
Cu283       N291   2.044       .  S
N284        N285   1.324       .  A
N284        C288   1.347       .  A
N285        C286   1.340       .  A
C286        C287   1.370       .  A
C286        H289   1.082       .  S
C287        C288   1.383       .  A
C287        C349   1.430       .  S
C288        H290   1.083       .  S
N291        N292   1.319       .  A
N291        C295   1.341       .  A
N292        C293   1.341   1_554  A
C293        C294   1.375   1_556  A
C293        H296   1.082       .  S
C294        C295   1.375       .  A
C294        C347   1.421       .  S
C295        H297   1.082       .  S
N298        N299   1.324       .  A
N298        C302   1.340       .  A
N298       Cu306   2.044       .  S
N299        C300   1.347       .  A
N299       Cu305   2.089   1_556  S
C300        C301   1.383       .  A
C300        H303   1.083       .  S
C301        C302   1.370       .  A
C301        C360   1.430       .  S
C302        H304   1.082       .  S
Cu305       N308   2.089       .  S
Cu306       N316   2.044   1_556  S
Cu307       N309   2.044       .  S
Cu307       N315   2.044       .  S
N308        N309   1.324       .  A
N308        C312   1.347       .  A
N309        C310   1.340       .  A
C310        C311   1.370       .  A
C310        H313   1.082       .  S
C311        C312   1.383       .  A
C311        C352   1.430       .  S
C312        H314   1.083       .  S
N315        N316   1.319       .  A
N315        C319   1.341       .  A
N316        C317   1.341   1_554  A
C317        C318   1.375   1_556  A
C317        H320   1.082       .  S
C318        C319   1.375       .  A
C318        C348   1.421       .  S
C319        H321   1.082       .  S
C322        C353   1.474   1_565  S
C322        C363   1.474       .  S
C322        C397   1.474   1_655  S
C322        C403   1.474       .  S
N323        N324   1.324       .  A
N323        C327   1.340       .  A
N323       Cu331   2.045       .  S
N324        C325   1.348       .  A
N324       Cu330   2.090       .  S
C325        C326   1.384       .  A
C325        H328   1.083       .  S
C326        C327   1.370       .  A
C326        C396   1.431       .  S
C327        H329   1.082       .  S
Cu330       N333   2.090       .  S
Cu331       N341   2.044       .  S
Cu332       N334   2.045       .  S
Cu332       N340   2.044       .  S
N333        N334   1.324       .  A
N333        C337   1.348       .  A
N334        C335   1.340       .  A
C335        C336   1.370       .  A
C335        H338   1.082       .  S
C336        C337   1.384       .  A
C336        C386   1.431       .  S
C337        H339   1.083       .  S
N340        N341   1.319       .  A
N340        C344   1.341       .  A
N341        C342   1.341       .  A
C342        C343   1.375       .  A
C342        H345   1.082       .  S
C343        C344   1.375       .  A
C343        C378   1.421       .  S
C344        H346   1.082       .  S
C347        C348   1.196       .  T
C349        C350   1.202       .  T
C351        C352   1.202       .  T
C353        C354   1.211       .  T
C355        C356   1.205       .  T
C357        C358   1.202       .  T
C359        C360   1.202       .  T
C361        C362   1.211       .  T
C363        C364   1.211       .  T
C365        C366   1.205       .  T
C367        C368   1.205       .  T
C369        C370   1.211       .  T
C371        C372   1.211       .  T
C373        C374   1.211       .  T
C375        C376   1.205       .  T
C377        C378   1.197       .  T
C379        C380   1.211       .  T
C381        C382   1.205       .  T
C383        C384   1.202       .  T
C385        C386   1.202       .  T
C387        C388   1.211       .  T
C389        C390   1.211       .  T
C391        C392   1.205       .  T
C393        C394   1.202       .  T
C395        C396   1.202       .  T
C397        C398   1.211       .  T
C399        C400   1.205       .  T
C401        C402   1.211       .  T
C403        C404   1.211       .  T
C405        C406   1.205       .  T
