geometry optimzed in LAMMPS
_audit_creation_date              2020-11-30 
_audit_creation_method            'lammps2cif' 
_symmetry_space_group_name_H-M    'P1' 
_symmetry_Int_Tables_number       1 
_symmetry_cell_setting            triclinic 
loop_ 
_symmetry_equiv_pos_as_xyz 
  x,y,z 
_cell_length_a                    29.93881796 
_cell_length_b                    68.5396875378546 
_cell_length_c                    28.61130366106404 
_cell_angle_alpha                 89.72915407650164 
_cell_angle_beta                  89.6244863282425 
_cell_angle_gamma                 89.98348321644605 
loop_ 
_atom_site_label 
_atom_site_type_symbol 
_atom_site_fract_x 
_atom_site_fract_y 
_atom_site_fract_z 
_atom_site_charge 
C1          C  0.32773734  0.33563217  0.46206930     0.01500
C2          C  0.30670066  0.35388486  0.45767518    -0.12100
C3          C  0.26020616  0.35550978  0.46220382     0.01600
C4          C  0.23450058  0.33863311  0.46903492    -0.10600
C5          C  0.25466766  0.32019480  0.47228586     0.04100
C6          C  0.30155503  0.31882417  0.46966180    -0.10000
H7          H  0.32668277  0.36692563  0.45269796     0.09700
H8          H  0.19854779  0.33992907  0.47254701     0.07200
H9          H  0.31759839  0.30470881  0.47275067     0.07000
C10         C  0.33471372  0.66839221  0.45604177     0.04100
C11         C  0.31102530  0.68611515  0.45452631    -0.12100
C12         C  0.26402428  0.68620743  0.45442188     0.01600
C13         C  0.24116110  0.66833011  0.45529033    -0.10600
C14         C  0.26429770  0.65056652  0.45608904     0.04100
C15         C  0.31111328  0.65066684  0.45607444    -0.10000
H16         H  0.32916694  0.69979136  0.45475817     0.09700
H17         H  0.20499606  0.66817039  0.45656943     0.07200
H18         H  0.32916707  0.63696314  0.45704920     0.07000
C19         C  0.67061960  0.66409439  0.46345506     0.04100
C20         C  0.69591829  0.68096700  0.47223774    -0.12100
C21         C  0.74277593  0.68026308  0.47047200     0.01600
C22         C  0.76414197  0.66251938  0.46094319    -0.10600
C23         C  0.73930354  0.64551611  0.45341421     0.04100
C24         C  0.69258747  0.64640611  0.45450212    -0.10000
H25         H  0.67924075  0.69466115  0.47955504     0.09700
H26         H  0.80031297  0.66179167  0.46144214     0.07200
H27         H  0.67330185  0.63324320  0.44899569     0.07000
O28         O  0.05384898  0.48275932  0.49269839    -0.72000
O29         O  0.95736349  0.52344089  0.49273766    -0.73000
O30         O  0.95868408  0.48208836  0.49349597    -0.61600
O31         O  0.05198195  0.52436973  0.49216024    -0.70000
O32         O  0.05240589  0.52428571  0.41475497    -0.69600
O33         O  0.95863281  0.48226383  0.41608832    -0.60800
O34         O  0.95804067  0.52337589  0.41530588    -0.73300
O35         O  0.05349502  0.48253087  0.41524947    -0.72100
Cu36       Cu  0.00560760  0.50314602  0.49547858     1.04600
Cu37       Cu  0.00579763  0.50309146  0.41269864     1.04300
C38         C  0.06854503  0.47599573  0.45397338     0.94200
C39         C  0.94232510  0.52981438  0.45386192     0.93300
C40         C  0.94326573  0.47571147  0.45488803     0.85500
C41         C  0.06630428  0.53133453  0.45331826     0.91700
C42         C  0.66452055  0.34191208  0.46265130     0.04100
C43         C  0.69076085  0.32517342  0.47097070    -0.12100
C44         C  0.73751453  0.32650970  0.47366854     0.01600
C45         C  0.75799333  0.34469388  0.46693742    -0.10600
C46         C  0.73268491  0.36156811  0.45915568     0.04100
C47         C  0.68588573  0.36016609  0.45749221    -0.10000
H48         H  0.67476363  0.31119618  0.47684757     0.09700
H49         H  0.79408089  0.34579357  0.46817739     0.07200
H50         H  0.66629279  0.37319585  0.45119220     0.07000
C51         C  0.98400472  0.19190563  0.59167957     0.87400
C52         C  0.02634606  0.20459144  0.58785942    -0.52800
C53         C  0.03085770  0.21438841  0.54631519     0.10300
C54         C  0.99230009  0.21064820  0.51225951     0.21300
C55         C  0.94536172  0.20612930  0.58100822    -0.53500
C56         C  0.94963643  0.21587725  0.53956964     0.10500
C57         C  0.98565246  0.17860158  0.54842241    -0.53100
C58         C  0.99066597  0.18831673  0.50674637     0.11000
H59         H  0.05066469  0.20564726  0.61573061     0.15500
H60         H  0.99554646  0.21883251  0.47891261     0.01300
H61         H  0.91697516  0.20877218  0.60353906     0.15800
H62         H  0.98238791  0.16286188  0.55085438     0.15600
C63         C  0.00049830  0.80973709  0.60071215     0.87400
C64         C  0.96188144  0.79522354  0.59507282    -0.52800
C65         C  0.96118315  0.78603952  0.55297028     0.10300
C66         C  0.99945543  0.79206731  0.51994748     0.21300
C67         C  0.04303168  0.79768961  0.58999193    -0.53500
C68         C  0.04230706  0.78827695  0.54791193     0.10500
C69         C  0.99670806  0.82360995  0.55846125    -0.53100
C70         C  0.99604772  0.81446482  0.51602688     0.11000
H71         H  0.93743454  0.79229688  0.62244553     0.15500
H72         H  0.99860818  0.78438844  0.48591918     0.01300
H73         H  0.07205985  0.79700147  0.61214817     0.15800
H74         H  0.99350962  0.83929463  0.56222359     0.15600
N75         N  0.99592659  0.11072110  0.12138758    -0.26400
N76         N  0.00671368  0.09462063  0.14433000    -0.34200
C77         C  0.01097566  0.09881409  0.19001169     0.02000
C78         C  0.00175412  0.11841972  0.19608507     0.08000
C79         C  0.99222285  0.12551418  0.15193853    -0.05100
H80         H  0.01917348  0.08829530  0.21692664     0.08700
H81         H  0.98385142  0.14037786  0.14261443     0.09900
Cu82       Cu  0.01265019  0.06756177  0.11242635     0.44200
Cu83       Cu  0.98881384  0.11197620  0.04928270     0.42000
Cu84       Cu  0.00641609  0.06714345  0.98532418     0.43900
N85         N  0.01299522  0.04229936  0.07253044    -0.33700
N86         N  0.01131645  0.04213180  0.02634313    -0.28000
C87         C  0.01057381  0.02350298  0.01165852    -0.04100
C88         C  0.01155892  0.01139123  0.05046587     0.08100
C89         C  0.01310199  0.02379369  0.08843043     0.01900
H90         H  0.00816158  0.01914072  0.97548766     0.09600
H91         H  0.01339780  0.01970876  0.12498662     0.08600
N92         N  0.99596618  0.09404347  0.95335474    -0.35200
N93         N  0.98870542  0.11029032  0.97681964    -0.27400
C94         C  0.98261564  0.12504450  0.94638786    -0.02600
C95         C  0.98646716  0.11786265  0.90115651     0.06000
C96         C  0.99482317  0.09805424  0.90729639     0.04100
H97         H  0.97553165  0.13981040  0.95704391     0.09200
H98         H  0.00024653  0.08727892  0.88037963     0.08000
N99         N  0.97371580  0.89192994  0.12953835    -0.26400
N100        N  0.98029358  0.90851118  0.15181975    -0.34200
C101        C  0.98135464  0.90492150  0.19808993     0.02000
C102        C  0.97557842  0.88505384  0.20542555     0.08000
C103        C  0.97062567  0.87733683  0.16099861    -0.05100
H104        H  0.98723446  0.91591500  0.22433337     0.08700
H105        H  0.96513912  0.86223925  0.15192172     0.09900
Cu106      Cu  0.98992982  0.93503297  0.11785382     0.44200
Cu107      Cu  0.97151387  0.88974691  0.05715748     0.42000
Cu108      Cu  0.99680109  0.93366910  0.99093383     0.43900
N109        N  0.00015889  0.95949677  0.07605529    -0.33700
N110        N  0.00274902  0.95905480  0.02990444    -0.28000
C111        C  0.00794231  0.97739128  0.01366690    -0.04100
C112        C  0.00869027  0.98993358  0.05143041     0.08100
C113        C  0.00377778  0.97808853  0.09039197     0.01900
H114        H  0.01021424  0.98130332  0.97706387     0.09600
H115        H  0.00196343  0.98265210  0.12648500     0.08600
N116        N  0.98597892  0.90659116  0.96057476    -0.35200
N117        N  0.97599959  0.89067117  0.98465894    -0.27400
C118        C  0.97135521  0.87566692  0.95492738    -0.02600
C119        C  0.97907446  0.88236648  0.90968278     0.06000
C120        C  0.98805159  0.90211999  0.91488767     0.04100
H121        H  0.96290562  0.86101732  0.96588413     0.09200
H122        H  0.99649954  0.91248000  0.88761992     0.08000
C123        C  0.98816403  0.84056630  0.82246150    -0.27300
C124        C  0.98442103  0.85050740  0.77965411     0.06300
C125        C  0.97735408  0.87078086  0.77999122     0.26000
C126        C  0.97493328  0.88088092  0.82229793    -0.11800
C127        C  0.97948536  0.87105536  0.86530525    -0.25700
C128        C  0.98578316  0.85064509  0.86486059     0.36800
C129        C  0.98868096  0.83978692  0.73481142     0.06400
F130        F  0.97425838  0.88095884  0.73932379    -0.19500
H131        H  0.96965720  0.89649275  0.82118636     0.16200
F132        F  0.99126607  0.84037475  0.90503004    -0.23200
H133        H  0.99318834  0.82491602  0.82306442     0.18000
C134        C  0.02523815  0.82742808  0.72621187     0.26000
C135        C  0.02963901  0.81783966  0.68334308    -0.11700
C136        C  0.99758910  0.82029043  0.64779169    -0.25800
C137        C  0.96038800  0.83237015  0.65731624     0.36900
C138        C  0.95626881  0.84203931  0.70005307    -0.27400
F139        F  0.05735333  0.82488888  0.75897341    -0.19500
H140        H  0.05809027  0.80839618  0.67919928     0.16200
F141        F  0.92761582  0.83476003  0.62521209    -0.23200
H142        H  0.92734995  0.85119261  0.70620384     0.18000
C143        C  0.99118805  0.84524278  0.29710416    -0.27300
C144        C  0.97870736  0.85493203  0.33827316     0.06300
C145        C  0.96468273  0.87448642  0.33542599     0.26000
C146        C  0.96351844  0.88411690  0.29217216    -0.11800
C147        C  0.97617626  0.87445910  0.25088622    -0.25700
C148        C  0.99007374  0.85484437  0.25386076     0.36800
C149        C  0.98202727  0.84475347  0.38407133     0.06400
F150        F  0.95145237  0.88418951  0.37438838    -0.19500
H151        H  0.95230928  0.89912724  0.29098764     0.16200
F152        F  0.00444854  0.84510373  0.21544275    -0.23200
H153        H  0.00290807  0.83030253  0.29860359     0.18000
C154        C  0.96197985  0.82642852  0.39141067     0.26000
C155        C  0.96654680  0.81675979  0.43433920    -0.11700
C156        C  0.99143433  0.82506821  0.47068798    -0.25800
C157        C  0.01173356  0.84338452  0.46309860     0.36900
C158        C  0.00677666  0.85310719  0.42034015    -0.27400
F159        F  0.93727274  0.81803724  0.35734830    -0.19500
H160        H  0.94997040  0.80286171  0.43929179     0.16200
F161        F  0.03784772  0.85162477  0.49618062    -0.23200
H162        H  0.02326968  0.86701773  0.41510738     0.18000
C163        C  0.98371031  0.15910924  0.81088823    -0.27300
C164        C  0.97973881  0.14872993  0.76902242     0.06300
C165        C  0.97684412  0.12830383  0.77077298     0.26000
C166        C  0.97837675  0.11847094  0.81374525    -0.11800
C167        C  0.98320858  0.12876350  0.85595249    -0.25700
C168        C  0.98567233  0.14933702  0.85386939     0.36800
C169        C  0.97959496  0.15934682  0.72374207     0.06400
F170        F  0.97186858  0.11787127  0.73093467    -0.19500
H171        H  0.97565217  0.10274490  0.81371630     0.16200
F172        F  0.99146164  0.16018642  0.89283386    -0.23200
H173        H  0.98636990  0.17486813  0.81017889     0.18000
C174        C  0.94810765  0.17403315  0.71504074     0.26000
C175        C  0.94898341  0.18443818  0.67289025    -0.11700
C176        C  0.98153378  0.18054177  0.63809821    -0.25800
C177        C  0.01356253  0.16592547  0.64769068     0.36900
C178        C  0.01218129  0.15535452  0.68969625    -0.27400
F179        F  0.91613818  0.17827441  0.74731909    -0.19500
H180        H  0.92433460  0.19572047  0.66905414     0.16200
F181        F  0.04659730  0.16191360  0.61646187    -0.23200
H182        H  0.03725758  0.14428713  0.69612025     0.18000
C183        C  0.01786614  0.15115299  0.41198840    -0.27300
C184        C  0.99929590  0.15995891  0.37208098     0.06300
C185        C  0.97851801  0.17830582  0.37692698     0.26000
C186        C  0.97553062  0.18724195  0.42070794    -0.11800
C187        C  0.99394651  0.17839265  0.46056872    -0.25700
C188        C  0.01594635  0.16033997  0.45552215     0.36800
C189        C  0.00075026  0.14974134  0.32609187     0.06400
F190        F  0.96169139  0.18783464  0.33925723    -0.19500
H191        H  0.95829792  0.20108314  0.42331664     0.16200
F192        F  0.03673563  0.15173432  0.49224182    -0.23200
H193        H  0.03365127  0.13697449  0.40970902     0.18000
C194        C  0.03936067  0.13969108  0.31099067     0.26000
C195        C  0.03925718  0.12932022  0.26894136    -0.11700
C196        C  0.00142323  0.12934433  0.24036287    -0.25800
C197        C  0.96332435  0.13973116  0.25451370     0.36900
C198        C  0.96277654  0.14952022  0.29730865    -0.27400
F199        F  0.07756881  0.14021986  0.33622446    -0.19500
H200        H  0.06910164  0.12156365  0.25816335     0.16200
F201        F  0.92606066  0.13980490  0.22774031    -0.23200
H202        H  0.93221099  0.15664351  0.30827760     0.18000
C203        C  0.82989056  0.29443706  0.52175737    -0.27300
C204        C  0.82407852  0.27720721  0.49632035     0.06300
C205        C  0.78780816  0.27571775  0.46556065     0.26000
C206        C  0.75893637  0.29159489  0.45910696    -0.11800
C207        C  0.76559234  0.30909758  0.48354002    -0.25700
C208        C  0.80082652  0.31016956  0.51585324     0.36800
C209        C  0.85581631  0.26087472  0.50289548     0.06400
F210        F  0.78126511  0.25917151  0.44065122    -0.19500
H211        H  0.73213998  0.29041072  0.43402246     0.16200
F212        F  0.80692265  0.32637505  0.54216031    -0.23200
H213        H  0.85695803  0.29564656  0.54653755     0.18000
C214        C  0.90190428  0.26364742  0.49563579     0.26000
C215        C  0.93209907  0.24867098  0.50589839    -0.11700
C216        C  0.91689408  0.23079577  0.52404616    -0.25800
C217        C  0.87058985  0.22779780  0.52965471     0.36900
C218        C  0.84041949  0.24272961  0.51905729    -0.27400
F219        F  0.91767938  0.28092872  0.47907145    -0.19500
H220        H  0.96753608  0.25132622  0.50133460     0.16200
F221        F  0.85445760  0.21045726  0.54544627    -0.23200
H222        H  0.80502930  0.24032372  0.52476436     0.18000
C223        C  0.85179215  0.44133477  0.41422617    -0.27300
C224        C  0.84127966  0.43116560  0.45552444     0.06300
C225        C  0.86346125  0.43613793  0.49698572     0.26000
C226        C  0.89607122  0.45079670  0.49670477    -0.11800
C227        C  0.90741096  0.46070217  0.45508491    -0.25700
C228        C  0.88429003  0.45598390  0.41386872     0.36800
C229        C  0.81013256  0.41433459  0.45398233     0.06400
F230        F  0.85520476  0.42619473  0.53726709    -0.19500
H231        H  0.91320370  0.45406302  0.52894768     0.16200
F232        F  0.89296801  0.46545528  0.37304456    -0.23200
H233        H  0.83502088  0.43775296  0.38195408     0.18000
C234        C  0.77322320  0.41281601  0.48454285     0.26000
C235        C  0.74637195  0.39604007  0.48438574    -0.11700
C236        C  0.75618173  0.38052352  0.45408061    -0.25800
C237        C  0.79191953  0.38246764  0.42222499     0.36900
C238        C  0.81842609  0.39922374  0.42215911    -0.27400
F239        F  0.76339120  0.42745484  0.51469316    -0.19500
H240        H  0.71904402  0.39481687  0.50922839     0.16200
F241        F  0.80177538  0.36793648  0.39176670    -0.23200
H242        H  0.84650654  0.40012891  0.39816617     0.18000
C243        C  0.83302598  0.71864238  0.46102266    -0.27300
C244        C  0.82999044  0.72768042  0.50488501     0.06300
C245        C  0.79546995  0.72208460  0.53584722     0.26000
C246        C  0.76570640  0.70724461  0.52354123    -0.11800
C247        C  0.77015568  0.69767180  0.48051569    -0.25700
C248        C  0.80363302  0.70370956  0.44898026     0.36800
C249        C  0.86358484  0.74254750  0.51816300     0.06400
F250        F  0.79188620  0.73024299  0.57884342    -0.19500
H251        H  0.74037152  0.70262688  0.54844453     0.16200
F252        F  0.80814512  0.69500454  0.40668664    -0.23200
H253        H  0.85863600  0.72301852  0.43618580     0.18000
C254        C  0.90955668  0.73888638  0.51201720     0.26000
C255        C  0.94100323  0.75320322  0.52287899    -0.11700
C256        C  0.92731767  0.77122057  0.54093877    -0.25800
C257        C  0.88150757  0.77483777  0.54778012     0.36900
C258        C  0.84995865  0.76063212  0.53623475    -0.27400
F259        F  0.92412393  0.72129098  0.49653477    -0.19500
H260        H  0.97621639  0.75007669  0.51805946     0.16200
F261        F  0.86722608  0.79231402  0.56426802    -0.23200
H262        H  0.81478040  0.76388172  0.54068926     0.18000
C263        C  0.85967206  0.56873288  0.49185725    -0.27300
C264        C  0.84240890  0.57478069  0.44864881     0.06300
C265        C  0.85646391  0.56531506  0.40770850     0.26000
C266        C  0.88834766  0.55051486  0.40992473    -0.11800
C267        C  0.90677780  0.54480474  0.45296412    -0.25700
C268        C  0.89146724  0.55385243  0.49419206     0.36800
C269        C  0.81263521  0.59194476  0.44629570     0.06400
F270        F  0.83951028  0.57044816  0.36551041    -0.19500
H271        H  0.89895189  0.54366970  0.37766660     0.16200
F272        F  0.90797126  0.54879581  0.53663348    -0.23200
H273        H  0.84964934  0.57601460  0.52377267     0.18000
C274        C  0.77535952  0.59360170  0.47614584     0.26000
C275        C  0.75046195  0.61082322  0.47686308    -0.11700
C276        C  0.76242804  0.62663046  0.44800810    -0.25800
C277        C  0.79847529  0.62464813  0.41668803     0.36900
C278        C  0.82337919  0.60745412  0.41601214    -0.27400
F279        F  0.76343652  0.57869219  0.50502523    -0.19500
H280        H  0.72279718  0.61208603  0.50126439     0.16200
F281        F  0.80995545  0.63942824  0.38722766    -0.23200
H282        H  0.85211402  0.60651830  0.39291909     0.18000
C283        C  0.45226630  0.65766557  0.49758150    -0.27300
C284        C  0.47802205  0.66748246  0.46380598     0.06300
C285        C  0.45655768  0.67803743  0.42821217     0.26000
C286        C  0.40991317  0.67857866  0.42625115    -0.11800
C287        C  0.38405633  0.66834051  0.45930049    -0.25700
C288        C  0.40562596  0.65797797  0.49528035     0.36800
C289        C  0.52724139  0.66622135  0.46479058     0.06400
F290        F  0.48082505  0.68789064  0.39554181    -0.19500
H291        H  0.39392993  0.68668775  0.39840804     0.16200
F292        F  0.38155267  0.64836680  0.52851105    -0.23200
H293        H  0.46835214  0.64948275  0.52524401     0.18000
C294        C  0.55155203  0.67340325  0.50286902     0.26000
C295        C  0.59826730  0.67285552  0.50212152    -0.11700
C296        C  0.62124515  0.66477155  0.46388793    -0.25800
C297        C  0.59674344  0.65715022  0.42634894     0.36900
C298        C  0.55016238  0.65801895  0.42677459    -0.27400
F299        F  0.53015671  0.68132331  0.54019754    -0.19500
H300        H  0.61655750  0.67858346  0.53157520     0.16200
F301        F  0.61785788  0.64931181  0.38872479    -0.23200
H302        H  0.53183697  0.65229005  0.39733826     0.18000
C303        C  0.13634970  0.75092593  0.54510013    -0.27300
C304        C  0.14719427  0.75040413  0.49731692     0.06300
C305        C  0.12378289  0.76259662  0.46629975     0.26000
C306        C  0.09027396  0.77506296  0.48305456    -0.11800
C307        C  0.07920336  0.77549270  0.53089747    -0.25700
C308        C  0.10268591  0.76321533  0.56181361     0.36800
C309        C  0.18078704  0.73611054  0.48034918     0.06400
F310        F  0.13354825  0.76256565  0.41990411    -0.19500
H311        H  0.07314850  0.78447587  0.45851155     0.16200
F312        F  0.09179945  0.76230986  0.60788760    -0.23200
H313        H  0.15304751  0.74126882  0.56946093     0.18000
C314        C  0.22252132  0.73431332  0.50229494     0.26000
C315        C  0.25087217  0.71873526  0.49145313    -0.11700
C316        C  0.23821024  0.70467359  0.45850997    -0.25800
C317        C  0.19798707  0.70737116  0.43393479     0.36900
C318        C  0.16953111  0.72287913  0.44503127    -0.27400
F319        F  0.23521223  0.74726806  0.53539103    -0.19500
H320        H  0.28159813  0.71708224  0.51084154     0.16200
F321        F  0.18544353  0.69465439  0.40022963    -0.23200
H322        H  0.13763568  0.72398020  0.42756082     0.18000
C323        C  0.17856751  0.61243784  0.49059783    -0.27300
C324        C  0.18602556  0.59792583  0.45691931     0.06300
C325        C  0.22097690  0.60046498  0.42424298     0.26000
C326        C  0.24728427  0.61734818  0.42496065    -0.11800
C327        C  0.23898961  0.63201633  0.45796038    -0.25700
C328        C  0.20484247  0.62926536  0.49133068     0.36800
C329        C  0.15668526  0.58044449  0.45569772     0.06400
F330        F  0.22986153  0.58658688  0.39180352    -0.19500
H331        H  0.27346807  0.61919591  0.39900986     0.16200
F332        F  0.19698308  0.64285381  0.52477662    -0.23200
H333        H  0.15174961  0.61091392  0.51593482     0.18000
C334        C  0.14698444  0.56982362  0.49671054     0.26000
C335        C  0.11815946  0.55378514  0.49543978    -0.11700
C336        C  0.09834304  0.54791760  0.45333661    -0.25800
C337        C  0.10820736  0.55855159  0.41221289     0.36900
C338        C  0.13702584  0.57461895  0.41356430    -0.27400
F339        F  0.16582468  0.57479037  0.53800864    -0.19500
H340        H  0.11131364  0.54595366  0.52766218     0.16200
F341        F  0.08918327  0.55383312  0.37084948    -0.23200
H342        H  0.14324831  0.58280254  0.38170004     0.18000
C343        C  0.54714354  0.32378280  0.43522409    -0.27300
C344        C  0.52065526  0.33726130  0.45951167     0.06300
C345        C  0.54133155  0.35246443  0.48392777     0.26000
C346        C  0.58796847  0.35400926  0.48442523    -0.11800
C347        C  0.61485776  0.34037609  0.46069653    -0.25700
C348        C  0.59382279  0.32525904  0.43575073     0.36800
C349        C  0.47141485  0.33562585  0.45882263     0.06400
F350        F  0.51632136  0.36587607  0.50705745    -0.19500
H351        H  0.60311329  0.36572193  0.50403128     0.16200
F352        F  0.61825599  0.31217195  0.41094241    -0.23200
H353        H  0.53157992  0.31210597  0.41583156     0.18000
C354        C  0.44710564  0.34266949  0.42050475     0.26000
C355        C  0.40035685  0.34225116  0.42133902    -0.11700
C356        C  0.37718446  0.33447670  0.46002303    -0.25800
C357        C  0.40164439  0.32686472  0.49778353     0.36900
C358        C  0.44843270  0.32760154  0.49725338    -0.27400
F359        F  0.46862495  0.35041040  0.38286728    -0.19500
H360        H  0.38211572  0.34817197  0.39193361     0.16200
F361        F  0.38027384  0.31953296  0.53599177    -0.23200
H362        H  0.46679687  0.32214112  0.52707457     0.18000
C363        C  0.12002287  0.24292065  0.47983854    -0.27300
C364        C  0.13501078  0.25594736  0.51405867     0.06300
C365        C  0.11696838  0.25463309  0.55950155     0.26000
C366        C  0.08406548  0.24076066  0.57008143    -0.11800
C367        C  0.06837206  0.22798216  0.53560490    -0.25700
C368        C  0.08730340  0.22897476  0.49045690     0.36800
C369        C  0.16767838  0.27145765  0.50152124     0.06400
F370        F  0.12958945  0.26736876  0.59311059    -0.19500
H371        H  0.06971974  0.24047984  0.60492190     0.16200
F372        F  0.07486099  0.21626984  0.45671176    -0.23200
H373        H  0.13377221  0.24356125  0.44474727     0.18000
C374        C  0.20703458  0.27412753  0.52734910     0.26000
C375        C  0.23605911  0.28957513  0.51666042    -0.11700
C376        C  0.22628579  0.30267285  0.48021712    -0.25800
C377        C  0.18769418  0.29954887  0.45332534     0.36900
C378        C  0.15885368  0.28406910  0.46388724    -0.27400
F379        F  0.21742312  0.26178534  0.56287852    -0.19500
H380        H  0.26554182  0.29165666  0.53779791     0.16200
F381        F  0.17779274  0.31149666  0.41684548    -0.23200
H382        H  0.12891280  0.28220506  0.44332078     0.18000
C383        C  0.18608629  0.39784595  0.49634508    -0.27300
C384        C  0.18981232  0.41017610  0.45714533     0.06300
C385        C  0.21954946  0.40501499  0.42084155     0.26000
C386        C  0.24343269  0.38744922  0.42309985    -0.11800
C387        C  0.23807424  0.37481825  0.46148713    -0.25700
C388        C  0.20999064  0.38039043  0.49862492     0.36800
C389        C  0.16164656  0.42801607  0.45453384     0.06400
F390        F  0.22576157  0.41697008  0.38340959    -0.19500
H391        H  0.26534470  0.38348118  0.39440156     0.16200
F392        F  0.20568687  0.36890558  0.53718186    -0.23200
H393        H  0.16372252  0.40150877  0.52489519     0.18000
C394        C  0.13605335  0.43221838  0.41463193     0.26000
C395        C  0.10707965  0.44823186  0.41422459    -0.11700
C396        C  0.10216651  0.46011556  0.45385197    -0.25800
C397        C  0.12802269  0.45600139  0.49361982     0.36900
C398        C  0.15758790  0.44020606  0.49370372    -0.27400
F399        F  0.13700993  0.42024393  0.37698731    -0.19500
H400        H  0.08713497  0.45086801  0.38338876     0.16200
F401        F  0.12467831  0.46714157  0.53258479    -0.23200
H402        H  0.17697078  0.43731046  0.52480496     0.18000
loop_ 
_geom_bond_atom_site_label_1 
_geom_bond_atom_site_label_2 
_geom_bond_distance 
_geom_bond_site_symmetry_2 
_ccdc_geom_bond_type 
C1            C2   1.406       .  A
C1            C6   1.409       .  A
C1          C356   1.483       .  S
C2            C3   1.402       .  A
C2            H7   1.084       .  S
C3            C4   1.402       .  A
C3          C387   1.480       .  S
C4            C5   1.403       .  A
C4            H8   1.084       .  S
C5            C6   1.408       .  A
C5          C376   1.487       .  S
C6            H9   1.084       .  S
C10          C11   1.407       .  A
C10          C15   1.406       .  A
C10         C287   1.481       .  S
C11          C12   1.407       .  A
C11          H16   1.084       .  S
C12          C13   1.404       .  A
C12         C316   1.487       .  S
C13          C14   1.401       .  A
C13          H17   1.083       .  S
C14          C15   1.402       .  A
C14         C327   1.481       .  S
C15          H18   1.084       .  S
C19          C20   1.407       .  A
C19          C24   1.403       .  A
C19         C296   1.479       .  S
C20          C21   1.404       .  A
C20          H25   1.084       .  S
C21          C22   1.401       .  A
C21         C247   1.478       .  S
C22          C23   1.401       .  A
C22          H26   1.084       .  S
C23          C24   1.400       .  A
C23         C276   1.476       .  S
C24          H27   1.084       .  S
O28         Cu36   2.011       .  S
O28          C38   1.278       .  A
O29         Cu36   2.007   1_655  S
O29          C39   1.278       .  A
O30         Cu36   2.016   1_655  S
O30          C40   1.279       .  A
O31         Cu36   2.013       .  S
O31          C41   1.279       .  A
O32         Cu37   2.016       .  S
O32          C41   1.279       .  A
O33         Cu37   2.010   1_655  S
O33          C40   1.278       .  A
O34         Cu37   1.995   1_655  S
O34          C39   1.277       .  A
O35         Cu37   2.007       .  S
O35          C38   1.278       .  A
Cu36        Cu37   2.368       .  S
C38         C396   1.482       .  S
C39         C267   1.479       .  S
C40         C227   1.487       .  S
C41         C336   1.487       .  S
C42          C43   1.410       .  A
C42          C47   1.412       .  A
C42         C347   1.492       .  S
C43          C44   1.405       .  A
C43          H48   1.083       .  S
C44          C45   1.401       .  A
C44         C207   1.487       .  S
C45          C46   1.400       .  A
C45          H49   1.084       .  S
C46          C47   1.406       .  A
C46         C236   1.484       .  S
C47          H50   1.083       .  S
C51          C52   1.540   1_655  S
C51          C57   1.541       .  S
C51          C55   1.544       .  S
C51         C176   1.538       .  S
C52          H59   1.086       .  S
C52          C53   1.368       .  D
C53          C54   1.538   1_455  S
C53         C367   1.489       .  S
C54          C58   1.540       .  S
C54          C56   1.536       .  S
C54          H60   1.108       .  S
C55          H61   1.079       .  S
C55          C56   1.363       .  D
C56         C216   1.485       .  S
C57          H62   1.085       .  S
C57          C58   1.370       .  D
C58         C187   1.492       .  S
C63          C64   1.535   1_455  S
C63          C69   1.539   1_455  S
C63          C67   1.547       .  S
C63         C136   1.534   1_455  S
C64          H71   1.086       .  S
C64          C65   1.362       .  D
C65          C66   1.536       .  S
C65         C256   1.479       .  S
C66          C70   1.542       .  S
C66          C68   1.538   1_655  S
C66          H72   1.109       .  S
C67          H73   1.080       .  S
C67          C68   1.369       .  D
C68         C307   1.490       .  S
C69          H74   1.085       .  S
C69          C70   1.369       .  D
C70         C156   1.491       .  S
N75          N76   1.322   1_655  A
N75          C79   1.346       .  A
N75         Cu83   2.077       .  S
N76          C77   1.346       .  A
N76         Cu82   2.078       .  S
C77          C78   1.383       .  A
C77          H80   1.082       .  S
C78          C79   1.383   1_455  A
C78         C196   1.475       .  S
C79          H81   1.082       .  S
Cu82         N85   2.078       .  S
Cu83         N93   2.077   1_554  S
Cu84         N86   2.079   1_556  S
Cu84         N92   2.079   1_455  S
N85          N86   1.323       .  A
N85          C89   1.345       .  A
N86          C87   1.346       .  A
C87          C88   1.384       .  A
C87          H90   1.081   1_554  S
C88          C89   1.383       .  A
C88         C112   1.473   1_545  S
C89          H91   1.082       .  S
N92          N93   1.320       .  A
N92          C96   1.346       .  A
N93          C94   1.344       .  A
C94          C95   1.391       .  A
C94          H97   1.079       .  S
C95          C96   1.391       .  A
C95         C167   1.494       .  S
C96          H98   1.081   1_655  S
N99         N100   1.321       .  A
N99         C103   1.345       .  A
N99        Cu107   2.078       .  S
N100        C101   1.346       .  A
N100       Cu106   2.077       .  S
C101        C102   1.388       .  A
C101        H104   1.082       .  S
C102        C103   1.388       .  A
C102        C147   1.487       .  S
C103        H105   1.081       .  S
Cu106       N109   2.077   1_655  S
Cu107       N117   2.078   1_554  S
Cu108       N110   2.079   1_656  S
Cu108       N116   2.079       .  S
N109        N110   1.323       .  A
N109        C113   1.345       .  A
N110        C111   1.347       .  A
C111        C112   1.384       .  A
C111        H114   1.082   1_554  S
C112        C113   1.383       .  A
C113        H115   1.081       .  S
N116        N117   1.321       .  A
N116        C120   1.345       .  A
N117        C118   1.346       .  A
C118        C119   1.389       .  A
C118        H121   1.080       .  S
C119        C120   1.389       .  A
C119        C127   1.491       .  S
C120        H122   1.081       .  S
C123        C124   1.404       .  A
C123        C128   1.400       .  A
C123        H133   1.083       .  S
C124        C125   1.406       .  A
C124        C129   1.486       .  S
C125        C126   1.399       .  A
C125        F130   1.357       .  S
C126        C127   1.407       .  A
C126        H131   1.082       .  S
C127        C128   1.412       .  A
C128        F132   1.356       .  S
C129        C134   1.405   1_655  A
C129        C138   1.402       .  A
C134        C135   1.400       .  A
C134        F139   1.358       .  S
C135        C136   1.412   1_455  A
C135        H140   1.076       .  S
C136        C137   1.413       .  A
C137        C138   1.398       .  A
C137        F141   1.358       .  S
C138        H142   1.083       .  S
C143        C144   1.403       .  A
C143        C148   1.399       .  A
C143        H153   1.083   1_655  S
C144        C145   1.407       .  A
C144        C149   1.485       .  S
C145        C146   1.400       .  A
C145        F150   1.358       .  S
C146        C147   1.407       .  A
C146        H151   1.083       .  S
C147        C148   1.410       .  A
C148        F152   1.356   1_655  S
C149        C154   1.406       .  A
C149        C158   1.403   1_655  A
C154        C155   1.400       .  A
C154        F159   1.357       .  S
C155        C156   1.406       .  A
C155        H160   1.083       .  S
C156        C157   1.410   1_655  A
C157        C158   1.399       .  A
C157        F161   1.357       .  S
C158        H162   1.083       .  S
C163        C164   1.402       .  A
C163        C168   1.399       .  A
C163        H173   1.083       .  S
C164        C165   1.403       .  A
C164        C169   1.483       .  S
C165        C166   1.400       .  A
C165        F170   1.357       .  S
C166        C167   1.410       .  A
C166        H171   1.081       .  S
C167        C168   1.413       .  A
C168        F172   1.355       .  S
C169        C174   1.401       .  A
C169        C178   1.402   1_655  A
C174        C175   1.398       .  A
C174        F179   1.358       .  S
C175        C176   1.415       .  A
C175        H180   1.074       .  S
C176        C177   1.414   1_655  A
C177        C178   1.401       .  A
C177        F181   1.357       .  S
C178        H182   1.083       .  S
C183        C184   1.407   1_455  A
C183        C188   1.399       .  A
C183        H193   1.083       .  S
C184        C185   1.410       .  A
C184        C189   1.494   1_655  S
C185        C186   1.399       .  A
C185        F190   1.357       .  S
C186        C187   1.405       .  A
C186        H191   1.082       .  S
C187        C188   1.409   1_655  A
C188        F192   1.357       .  S
C189        C194   1.412       .  A
C189        C198   1.408   1_455  A
C194        C195   1.400       .  A
C194        F199   1.357       .  S
C195        C196   1.401       .  A
C195        H200   1.083       .  S
C196        C197   1.403   1_455  A
C197        C198   1.399       .  A
C197        F201   1.357       .  S
C198        H202   1.082       .  S
C203        C204   1.402       .  A
C203        C208   1.396       .  A
C203        H213   1.084       .  S
C204        C205   1.406       .  A
C204        C209   1.480       .  S
C205        C206   1.402       .  A
C205        F210   1.357       .  S
C206        C207   1.406       .  A
C206        H211   1.083       .  S
C207        C208   1.409       .  A
C208        F212   1.358       .  S
C209        C214   1.407       .  A
C209        C218   1.402       .  A
C214        C215   1.399       .  A
C214        F219   1.357       .  S
C215        C216   1.403       .  A
C215        H220   1.083       .  S
C216        C217   1.410       .  A
C217        C218   1.398       .  A
C217        F221   1.357       .  S
C218        H222   1.084       .  S
C223        C224   1.403       .  A
C223        C228   1.398       .  A
C223        H233   1.083       .  S
C224        C225   1.407       .  A
C224        C229   1.485       .  S
C225        C226   1.401       .  A
C225        F230   1.357       .  S
C226        C227   1.408       .  A
C226        H231   1.083       .  S
C227        C228   1.410       .  A
C228        F232   1.357       .  S
C229        C234   1.408       .  A
C229        C238   1.403       .  A
C234        C235   1.403       .  A
C234        F239   1.357       .  S
C235        C236   1.405       .  A
C235        H240   1.083       .  S
C236        C237   1.407       .  A
C237        C238   1.396       .  A
C237        F241   1.358       .  S
C238        H242   1.083       .  S
C243        C244   1.405       .  A
C243        C248   1.396       .  A
C243        H253   1.083       .  S
C244        C245   1.409       .  A
C244        C249   1.484       .  S
C245        C246   1.400       .  A
C245        F250   1.357       .  S
C246        C247   1.403       .  A
C246        H251   1.084       .  S
C247        C248   1.405       .  A
C248        F252   1.358       .  S
C249        C254   1.409       .  A
C249        C258   1.405       .  A
C254        C255   1.398       .  A
C254        F259   1.358       .  S
C255        C256   1.401       .  A
C255        H260   1.084       .  S
C256        C257   1.406       .  A
C257        C258   1.399       .  A
C257        F261   1.357       .  S
C258        H262   1.083       .  S
C263        C264   1.404       .  A
C263        C268   1.397       .  A
C263        H273   1.083       .  S
C264        C265   1.404       .  A
C264        C269   1.477       .  S
C265        C266   1.394       .  A
C265        F270   1.358       .  S
C266        C267   1.406       .  A
C266        H271   1.083       .  S
C267        C268   1.409       .  A
C268        F272   1.357       .  S
C269        C274   1.406       .  A
C269        C278   1.404       .  A
C274        C275   1.396       .  A
C274        F279   1.357       .  S
C275        C276   1.404       .  A
C275        H280   1.083       .  S
C276        C277   1.405       .  A
C277        C278   1.394       .  A
C277        F281   1.358       .  S
C278        H282   1.083       .  S
C283        C284   1.402       .  A
C283        C288   1.398       .  A
C283        H293   1.083       .  S
C284        C285   1.405       .  A
C284        C289   1.477       .  S
C285        C286   1.398       .  A
C285        F290   1.358       .  S
C286        C287   1.404       .  A
C286        H291   1.083       .  S
C287        C288   1.408       .  A
C288        F292   1.357       .  S
C289        C294   1.405       .  A
C289        C298   1.402       .  A
C294        C295   1.399       .  A
C294        F299   1.357       .  S
C295        C296   1.404       .  A
C295        H300   1.083       .  S
C296        C297   1.407       .  A
C297        C298   1.396       .  A
C297        F301   1.358       .  S
C298        H302   1.083       .  S
C303        C304   1.404       .  A
C303        C308   1.397       .  A
C303        H313   1.083       .  S
C304        C305   1.406       .  A
C304        C309   1.485       .  S
C305        C306   1.401       .  A
C305        F310   1.357       .  S
C306        C307   1.407       .  A
C306        H311   1.083       .  S
C307        C308   1.409       .  A
C308        F312   1.357       .  S
C309        C314   1.407       .  A
C309        C318   1.404       .  A
C314        C315   1.399       .  A
C314        F319   1.357       .  S
C315        C316   1.405       .  A
C315        H320   1.083       .  S
C316        C317   1.410       .  A
C317        C318   1.398       .  A
C317        F321   1.358       .  S
C318        H322   1.083       .  S
C323        C324   1.405       .  A
C323        C328   1.397       .  A
C323        H333   1.083       .  S
C324        C325   1.409       .  A
C324        C329   1.487       .  S
C325        C326   1.400       .  A
C325        F330   1.357       .  S
C326        C327   1.403       .  A
C326        H331   1.083       .  S
C327        C328   1.406       .  A
C328        F332   1.358       .  S
C329        C334   1.407       .  A
C329        C338   1.405       .  A
C334        C335   1.398       .  A
C334        F339   1.358       .  S
C335        C336   1.407       .  A
C335        H340   1.083       .  S
C336        C337   1.411       .  A
C337        C338   1.400       .  A
C337        F341   1.357       .  S
C338        H342   1.083       .  S
C343        C344   1.401       .  A
C343        C348   1.401       .  A
C343        H353   1.083       .  S
C344        C345   1.404       .  A
C344        C349   1.479       .  S
C345        C346   1.400       .  A
C345        F350   1.357       .  S
C346        C347   1.407       .  A
C346        H351   1.083       .  S
C347        C348   1.412       .  A
C348        F352   1.357       .  S
C349        C354   1.404       .  A
C349        C358   1.403       .  A
C354        C355   1.400       .  A
C354        F359   1.357       .  S
C355        C356   1.405       .  A
C355        H360   1.083       .  S
C356        C357   1.407       .  A
C357        C358   1.402       .  A
C357        F361   1.357       .  S
C358        H362   1.083       .  S
C363        C364   1.404       .  A
C363        C368   1.400       .  A
C363        H373   1.083       .  S
C364        C365   1.407       .  A
C364        C369   1.486       .  S
C365        C366   1.400       .  A
C365        F370   1.357       .  S
C366        C367   1.405       .  A
C366        H371   1.083       .  S
C367        C368   1.409       .  A
C368        F372   1.357       .  S
C369        C374   1.407       .  A
C369        C378   1.404       .  A
C374        C375   1.401       .  A
C374        F379   1.357       .  S
C375        C376   1.405       .  A
C375        H380   1.083       .  S
C376        C377   1.409       .  A
C377        C378   1.399       .  A
C377        F381   1.358       .  S
C378        H382   1.083       .  S
C383        C384   1.405       .  A
C383        C388   1.395       .  A
C383        H393   1.083       .  S
C384        C385   1.410       .  A
C384        C389   1.487       .  S
C385        C386   1.402       .  A
C385        F390   1.357       .  S
C386        C387   1.404       .  A
C386        H391   1.083       .  S
C387        C388   1.405       .  A
C388        F392   1.358       .  S
C389        C394   1.408       .  A
C389        C398   1.406       .  A
C394        C395   1.399       .  A
C394        F399   1.357       .  S
C395        C396   1.406       .  A
C395        H400   1.083       .  S
C396        C397   1.408       .  A
C397        C398   1.398       .  A
C397        F401   1.357       .  S
C398        H402   1.083       .  S
