geometry optimzed in LAMMPS
_audit_creation_date              2020-11-30 
_audit_creation_method            'lammps2cif' 
_symmetry_space_group_name_H-M    'P1' 
_symmetry_Int_Tables_number       1 
_symmetry_cell_setting            triclinic 
loop_ 
_symmetry_equiv_pos_as_xyz 
  x,y,z 
_cell_length_a                    33.690335456608835 
_cell_length_b                    81.9201119033204 
_cell_length_c                    26.812896907630304 
_cell_angle_alpha                 89.55850162687553 
_cell_angle_beta                  89.92201830271676 
_cell_angle_gamma                 89.65512200577557 
loop_ 
_atom_site_label 
_atom_site_type_symbol 
_atom_site_fract_x 
_atom_site_fract_y 
_atom_site_fract_z 
_atom_site_charge 
C1          C  0.75988037  0.74953464  0.55877967     0.00240
C2          C  0.72343767  0.74986425  0.53616301     0.00240
C3          C  0.21790584  0.74873338  0.67013662     0.00240
C4          C  0.25391316  0.74915090  0.64665160     0.00240
N5          N  0.39439237  0.81592060  0.53214507    -0.27610
N6          N  0.41854922  0.80666689  0.55921849    -0.35470
C7          C  0.39696796  0.79668347  0.58835034     0.00730
C8          C  0.35728715  0.79974023  0.57930277     0.06750
C9          C  0.35663416  0.81184564  0.54294738    -0.06350
H10         H  0.40927452  0.78727389  0.61239096     0.07420
H11         H  0.33070682  0.81703289  0.52493580     0.08620
Cu12       Cu  0.47964215  0.80639439  0.55199017     0.44170
Cu13       Cu  0.41448786  0.83342976  0.48142562     0.41990
Cu14       Cu  0.52184005  0.83305844  0.46100287     0.43880
N15         N  0.53927133  0.80612996  0.53383334    -0.35000
N16         N  0.55475714  0.81559689  0.49888798    -0.29250
C17         C  0.59320352  0.81157116  0.49268390    -0.05350
C18         C  0.60241079  0.79917443  0.52610197     0.06860
C19         C  0.56745801  0.79593010  0.55124872     0.00660
H20         H  0.61269239  0.81696666  0.46510176     0.08310
H21         H  0.56238196  0.78629781  0.57830535     0.07390
N22         N  0.48351691  0.85035713  0.43131751    -0.36450
N23         N  0.44459907  0.85057213  0.43801895    -0.28630
C24         C  0.42930555  0.86367374  0.41399562    -0.03870
C25         C  0.46016886  0.87204875  0.39143167     0.04740
C26         C  0.49400778  0.86326659  0.40322783     0.02840
H27         H  0.39814738  0.86693965  0.41349751     0.07940
H28         H  0.52416995  0.86604445  0.39236287     0.06780
N29         N  0.39374033  0.68555372  0.51037528    -0.27610
N30         N  0.41628326  0.69837444  0.51861691    -0.35470
C31         C  0.39551743  0.70956392  0.54382108     0.00730
C32         C  0.35780080  0.70364361  0.55225270     0.06750
C33         C  0.35756802  0.68830200  0.53050455    -0.06350
H34         H  0.40750734  0.72103265  0.55649553     0.07420
H35         H  0.33359989  0.67957745  0.53093785     0.08620
Cu36       Cu  0.47571533  0.69971421  0.50221798     0.44170
Cu37       Cu  0.41642444  0.66503220  0.47484903     0.41990
Cu38       Cu  0.52674716  0.66522361  0.45691684     0.43880
N39         N  0.53653034  0.69847463  0.49834651    -0.35000
N40         N  0.55633650  0.68559704  0.48235065    -0.29250
C41         C  0.59553455  0.68829510  0.48772250    -0.05350
C42         C  0.60018603  0.70352081  0.50909245     0.06860
C43         C  0.56216046  0.70967817  0.51445250     0.00660
H44         H  0.61873586  0.67970855  0.47794223     0.08310
H45         H  0.55361044  0.72141803  0.52937906     0.07390
N46         N  0.48869820  0.64698130  0.43399867    -0.36450
N47         N  0.44962063  0.64691646  0.43975582    -0.28630
C48         C  0.43513066  0.63321674  0.41950774    -0.03870
C49         C  0.46652083  0.62426989  0.40045404     0.04740
C50         C  0.49995140  0.63332892  0.41026368     0.02840
H51         H  0.40403900  0.62999945  0.41895783     0.07940
H52         H  0.53029922  0.63029871  0.40067916     0.06780
N53         N  0.89135897  0.81617742  0.69316840    -0.27610
N54         N  0.91538891  0.80487232  0.67494603    -0.35470
C55         C  0.89412553  0.79382175  0.65005188     0.00730
C56         C  0.85473465  0.79830754  0.65235864     0.06750
C57         C  0.85376090  0.81256740  0.67992184    -0.06350
H58         H  0.90641705  0.78309528  0.63232904     0.07420
H59         H  0.82774542  0.81953520  0.69048775     0.08620
Cu60       Cu  0.97589221  0.80413257  0.68542118     0.44170
Cu61       Cu  0.91251366  0.83536637  0.73655961     0.41990
Cu62       Cu  0.02083207  0.83347426  0.76290553     0.43880
N63         N  0.03565949  0.80387913  0.70124121    -0.35000
N64         N  0.05270885  0.81436602  0.73148970    -0.29250
C65         C  0.09151682  0.81048072  0.73573837    -0.05350
C66         C  0.09893706  0.79708736  0.70587374     0.06860
C67         C  0.06292335  0.79320071  0.68480537     0.00660
H68         H  0.11268908  0.81697684  0.75834590     0.08310
H69         H  0.05684616  0.78316734  0.65999391     0.07390
N70         N  0.98265832  0.85192071  0.78625008    -0.36450
N71         N  0.94397794  0.85265821  0.77753394    -0.28630
C72         C  0.92925016  0.86633798  0.79843966    -0.03870
C73         C  0.96012437  0.87458062  0.82098343     0.04740
C74         C  0.99343734  0.86509473  0.81243749     0.02840
H75         H  0.89841810  0.87007090  0.79691015     0.07940
H76         H  0.02344830  0.86754732  0.82442267     0.06780
N77         N  0.89247769  0.68074194  0.68644233    -0.27610
N78         N  0.91550293  0.69352551  0.67941354    -0.35470
C79         C  0.89567174  0.70515192  0.65454129     0.00730
C80         C  0.85788074  0.69965504  0.64500925     0.06750
C81         C  0.85662961  0.68403104  0.66585087    -0.06350
H82         H  0.90827391  0.71673051  0.64326862     0.07420
H83         H  0.83206866  0.67559688  0.66496924     0.08620
Cu84       Cu  0.97430271  0.69448569  0.69727070     0.44170
Cu85       Cu  0.91513295  0.65994844  0.72244597     0.41990
Cu86       Cu  0.02716620  0.66002957  0.73663748     0.43880
N87         N  0.03486804  0.69371867  0.69706208    -0.35000
N88         N  0.05586641  0.68076356  0.71016805    -0.29250
C89         C  0.09468303  0.68407030  0.70308283    -0.05350
C90         C  0.09764853  0.69980394  0.68359352     0.06860
C91         C  0.05908865  0.70554700  0.68128311     0.00660
H92         H  0.11879262  0.67570342  0.71135313     0.08310
H93         H  0.04916270  0.71755714  0.66959348     0.07390
N94         N  0.98857589  0.64247553  0.76494887    -0.36450
N95         N  0.94933446  0.64244515  0.76067098    -0.28630
C96         C  0.93502093  0.62947194  0.78594628    -0.03870
C97         C  0.96658971  0.62096854  0.80682486     0.04740
C98         C  0.99996979  0.62953713  0.79270545     0.02840
H99         H  0.90385903  0.62652142  0.78911340     0.07940
H100        H  0.03040954  0.62674710  0.80252474     0.06780
N101        N  0.37148051  0.94363347  0.24137156    -0.27610
N102        N  0.39266364  0.95515885  0.21954724    -0.35470
C103        C  0.36854106  0.96579321  0.19653751     0.00730
C104        C  0.32999435  0.96079955  0.20379981     0.06750
C105        C  0.33269946  0.94667622  0.23258541    -0.06350
H106        H  0.37844482  0.97640946  0.17583722     0.07420
H107        H  0.30846259  0.93935932  0.24666027     0.08620
Cu108      Cu  0.45314438  0.95625776  0.22014142     0.44170
Cu109      Cu  0.39873330  0.92493178  0.28171083     0.41990
Cu110      Cu  0.51023311  0.92554069  0.27783380     0.43880
N111        N  0.51362168  0.95582614  0.21621148    -0.35000
N112        N  0.53594698  0.94439650  0.23702532    -0.29250
C113        C  0.57430238  0.94758229  0.22650103    -0.05350
C114        C  0.57559360  0.96168508  0.19742461     0.06860
C115        C  0.53656847  0.96654222  0.19199697     0.00660
H116        H  0.59921891  0.94032508  0.23942692     0.08310
H117        H  0.52552957  0.97705788  0.17152347     0.07390
N118        N  0.47553934  0.90850708  0.31563225    -0.36450
N119        N  0.43621641  0.90830031  0.31746258    -0.28630
C120        C  0.42462688  0.89541107  0.34521786    -0.03870
C121        C  0.45812471  0.88711122  0.36132009     0.04740
C122        C  0.48977823  0.89574358  0.34195570     0.02840
H123        H  0.39404193  0.89221475  0.35249487     0.07940
H124        H  0.52099373  0.89292732  0.34636144     0.06780
N125        N  0.87337197  0.94956116  0.95453103    -0.27610
N126        N  0.89324968  0.96175689  0.97443441    -0.35470
C127        C  0.86769662  0.97187279  0.99729042     0.00730
C128        C  0.82987425  0.96587613  0.99116543     0.06750
C129        C  0.83443364  0.95161196  0.96438934    -0.06350
H130        H  0.87618029  0.98247867  0.01849708     0.07420
H131        H  0.81141618  0.94309580  0.95436481     0.08620
Cu132      Cu  0.95435405  0.96353436  0.97444014     0.44170
Cu133      Cu  0.90108801  0.93025569  0.91820588     0.41990
Cu134      Cu  0.01001360  0.93033374  0.92299219     0.43880
N135        N  0.01554718  0.96227424  0.97672537    -0.35000
N136        N  0.03643896  0.94997950  0.95850082    -0.29250
C137        C  0.07504398  0.95224644  0.96943464    -0.05350
C138        C  0.07835001  0.96676321  0.99516532     0.06860
C139        C  0.04008244  0.97267897  0.99958167     0.00660
H140        H  0.09865491  0.94368907  0.96103138     0.08310
H141        H  0.03057673  0.98338340  0.01986741     0.07390
N142        N  0.97631594  0.91232545  0.88903820    -0.36450
N143        N  0.93706857  0.91236206  0.88664672    -0.28630
C144        C  0.92517499  0.89902651  0.86179558    -0.03870
C145        C  0.95848273  0.89015233  0.84815245     0.04740
C146        C  0.99031913  0.89893714  0.86604757     0.02840
H147        H  0.89452811  0.89595342  0.85467438     0.07940
H148        H  0.02146407  0.89585668  0.86259004     0.06780
N149        N  0.53341921  0.04797248  0.95352151    -0.27610
N150        N  0.51352595  0.03573967  0.97370354    -0.35470
C151        C  0.53926418  0.02490163  0.99319062     0.00730
C152        C  0.57732950  0.03046670  0.98454149     0.06750
C153        C  0.57253074  0.04525617  0.95985209    -0.06350
H154        H  0.53077769  0.01411413  0.01404920     0.07420
H155        H  0.59566382  0.05357261  0.94827192     0.08620
Cu156      Cu  0.45246504  0.03464234  0.97731485     0.44170
Cu157      Cu  0.50582233  0.06791241  0.92032786     0.41990
Cu158      Cu  0.39707950  0.06833315  0.92684813     0.43880
N159        N  0.39137145  0.03603993  0.97963586    -0.35000
N160        N  0.37063299  0.04848066  0.96165971    -0.29250
C161        C  0.33185989  0.04589614  0.97076687    -0.05350
C162        C  0.32814035  0.03097948  0.99501327     0.06860
C163        C  0.36655714  0.02520618  0.00051019     0.00660
H164        H  0.30822096  0.05432782  0.96104978     0.08310
H165        H  0.37597550  0.01421025  0.01983185     0.07390
N166        N  0.43096321  0.08620108  0.89216439    -0.36450
N167        N  0.47018716  0.08603039  0.88950653    -0.28630
C168        C  0.48233979  0.09929722  0.86399053    -0.03870
C169        C  0.44918841  0.10822821  0.85007367     0.04740
C170        C  0.41717162  0.09959076  0.86851918     0.02840
H171        H  0.51303137  0.10221028  0.85629941     0.07940
H172        H  0.38607683  0.10275055  0.86496099     0.06780
N173        N  0.03280876  0.05159150  0.25420564    -0.27610
N174        N  0.01181995  0.04107420  0.22828048    -0.35470
C175        C  0.03611335  0.03145076  0.20201802     0.00730
C176        C  0.07446645  0.03609368  0.21158945     0.06750
C177        C  0.07165365  0.04880322  0.24524935    -0.06350
H178        H  0.02645913  0.02197457  0.17696950     0.07420
H179        H  0.09578016  0.05582829  0.26053958     0.08620
Cu180      Cu  0.95143962  0.04044777  0.22635097     0.44170
Cu181      Cu  0.00538983  0.06965496  0.29641100     0.41990
Cu182      Cu  0.89445485  0.06948935  0.29151859     0.43880
N183        N  0.89105355  0.04094247  0.22361176    -0.35000
N184        N  0.86885119  0.05151090  0.24812430    -0.29250
C185        C  0.83046417  0.04875736  0.23710027    -0.05350
C186        C  0.82918192  0.03601510  0.20346947     0.06860
C187        C  0.86799733  0.03129698  0.19612824     0.00660
H188        H  0.80562910  0.05578945  0.25113145     0.08310
H189        H  0.87879226  0.02170518  0.17202610     0.07390
N190        N  0.92886496  0.08664239  0.32808628    -0.36450
N191        N  0.96816623  0.08671180  0.33020893    -0.28630
C192        C  0.97981825  0.09979819  0.35637294    -0.03870
C193        C  0.94637034  0.10835257  0.37119906     0.04740
C194        C  0.91467767  0.09967932  0.35264644     0.02840
H195        H  0.01042116  0.10293495  0.36352245     0.07940
H196        H  0.88349268  0.10264694  0.35642119     0.06780
C197        C  0.70355485  0.99978579  0.10256108    -0.02810
C198        C  0.20188628  0.99982697  0.11240671    -0.02810
C199        C  0.65537019  0.25025690  0.57360522     0.00240
C200        C  0.69150596  0.25016158  0.55083490     0.00240
C201        C  0.19740557  0.24887616  0.65320803     0.00240
C202        C  0.16079678  0.24987594  0.63147042     0.00240
N203        N  0.01743122  0.18181677  0.52327701    -0.27610
N204        N  0.99422848  0.19362299  0.53998131    -0.35470
C205        C  0.01626743  0.20495928  0.56241591     0.00730
C206        C  0.05540652  0.20013449  0.55993638     0.06750
C207        C  0.05538087  0.18538965  0.53481660    -0.06350
H208        H  0.00475472  0.21621326  0.57776777     0.07420
H209        H  0.08097426  0.17819959  0.52401982     0.08620
Cu210      Cu  0.93404998  0.19455624  0.52928895     0.44170
Cu211      Cu  0.99406016  0.16242221  0.48307563     0.41990
Cu212      Cu  0.88328104  0.16325192  0.46584932     0.43880
N213        N  0.87363301  0.19443231  0.52081779    -0.35000
N214        N  0.85368936  0.18287729  0.49798683    -0.29250
C215        C  0.81457699  0.18645747  0.50065982    -0.05350
C216        C  0.81015108  0.20083926  0.52729697     0.06860
C217        C  0.84832651  0.20562304  0.53843982     0.00660
H218        H  0.79122938  0.17912635  0.48482228     0.08310
H219        H  0.85729030  0.21657350  0.55757294     0.07390
N220        N  0.92191911  0.14553955  0.43841661    -0.36450
N221        N  0.96100672  0.14522585  0.44414912    -0.28630
C222        C  0.97573944  0.13197481  0.42098412    -0.03870
C223        C  0.94455763  0.12357138  0.39993413     0.04740
C224        C  0.91096939  0.13250174  0.41170227     0.02840
H225        H  0.00687099  0.12868711  0.41978395     0.07940
H226        H  0.88067508  0.12976860  0.40155653     0.06780
N227        N  0.51885053  0.18346918  0.70065530    -0.27610
N228        N  0.49441658  0.19484103  0.68343980    -0.35470
C229        C  0.51500689  0.20615909  0.65855368     0.00730
C230        C  0.55461930  0.20186384  0.65954225     0.06750
C231        C  0.55620542  0.18733175  0.68665035    -0.06350
H232        H  0.50185272  0.21669859  0.64028606     0.07420
H233        H  0.58221311  0.17995434  0.69452890     0.08620
Cu234      Cu  0.43384791  0.19463974  0.68971730     0.44170
Cu235      Cu  0.49758456  0.16343176  0.74075316     0.41990
Cu236      Cu  0.38702571  0.16369726  0.75722316     0.43880
N237        N  0.37329330  0.19322525  0.69461624    -0.35000
N238        N  0.35509577  0.18197719  0.72147734    -0.29250
C239        C  0.31571793  0.18487166  0.72009188    -0.05350
C240        C  0.30925559  0.19836404  0.68971789     0.06860
C241        C  0.34634198  0.20342994  0.67463340     0.00660
H242        H  0.29365718  0.17791231  0.74029463     0.08310
H243        H  0.35332967  0.21417108  0.65265563     0.07390
N244        N  0.42565988  0.14600261  0.78439638    -0.36450
N245        N  0.46475594  0.14573882  0.77880962    -0.28630
C246        C  0.47928412  0.13223591  0.80140555    -0.03870
C247        C  0.44787469  0.12367195  0.82188782     0.04740
C248        C  0.41445136  0.13273017  0.81036121     0.02840
H249        H  0.51038692  0.12890180  0.80266694     0.07940
H250        H  0.38406326  0.12992103  0.82008327     0.06780
N251        N  0.01635293  0.31827362  0.53547948    -0.27610
N252        N  0.99254776  0.30753039  0.55679038    -0.35470
C253        C  0.01400985  0.29695348  0.58400667     0.00730
C254        C  0.05348280  0.30125734  0.58068312     0.06750
C255        C  0.05404631  0.31472331  0.54884711    -0.06350
H256        H  0.00175708  0.28644613  0.60308876     0.07420
H257        H  0.07990879  0.32123073  0.53566165     0.08620
Cu258      Cu  0.93219788  0.30669207  0.54722670     0.44170
Cu259      Cu  0.99474830  0.33659404  0.48822382     0.41990
Cu260      Cu  0.88574968  0.33498731  0.46647209     0.43880
N261        N  0.87222582  0.30658177  0.53421858    -0.35000
N262        N  0.85446310  0.31678489  0.50303845    -0.29250
C263        C  0.81571271  0.31294328  0.50045327    -0.05350
C264        C  0.80898573  0.29989144  0.53248916     0.06860
C265        C  0.84554444  0.29609619  0.55279400     0.00660
H266        H  0.79425901  0.31899609  0.47657180     0.08310
H267        H  0.85258267  0.28601978  0.57763302     0.07390
N268        N  0.92354396  0.35261313  0.43785172    -0.36450
N269        N  0.96239629  0.35327304  0.44506580    -0.28630
C270        C  0.97669421  0.36647229  0.42090781    -0.03870
C271        C  0.94534938  0.37445143  0.39771674     0.04740
C272        C  0.91221856  0.36534272  0.40928740     0.02840
H273        H  0.00755882  0.37003918  0.42059214     0.07940
H274        H  0.88195887  0.36775610  0.39783367     0.06780
N275        N  0.52084798  0.31614124  0.70747507    -0.27610
N276        N  0.49767185  0.30416536  0.69278183    -0.35470
C277        C  0.51883295  0.29342817  0.66613984     0.00730
C278        C  0.55747416  0.29873079  0.66412689     0.06750
C279        C  0.55807726  0.31315286  0.69095358    -0.06350
H280        H  0.50714822  0.28229412  0.65060488     0.07420
H281        H  0.58354458  0.32073695  0.69832203     0.08620
Cu282      Cu  0.43865800  0.30242231  0.71043475     0.44170
Cu283      Cu  0.49763108  0.33549269  0.74877837     0.41990
Cu284      Cu  0.38576626  0.33511867  0.76311410     0.43880
N285        N  0.37835768  0.30206833  0.72006892    -0.35000
N286        N  0.35714862  0.31443752  0.73684718    -0.29250
C287        C  0.31823705  0.31087120  0.73168418    -0.05350
C288        C  0.31532786  0.29539107  0.71089402     0.06860
C289        C  0.35420400  0.29029194  0.70458655     0.00660
H290        H  0.29416043  0.31917338  0.74030557     0.08310
H291        H  0.36441834  0.27904722  0.68783392     0.07390
N292        N  0.42417846  0.35277041  0.79062926    -0.36450
N293        N  0.46342216  0.35288564  0.78639316    -0.28630
C294        C  0.47754243  0.36602814  0.81039221    -0.03870
C295        C  0.44582560  0.37454135  0.83050944     0.04740
C296        C  0.41258543  0.36580529  0.81720554     0.02840
H297        H  0.50863681  0.36912228  0.81302402     0.07940
H298        H  0.38206479  0.36859999  0.82657182     0.06780
N299        N  0.37548248  0.55213926  0.26620722    -0.27610
N300        N  0.39321623  0.54077845  0.23922607    -0.35470
C301        C  0.36524776  0.53199949  0.21603227     0.00730
C302        C  0.32840161  0.53813676  0.22936259     0.06750
C303        C  0.33587938  0.55085244  0.26128703    -0.06350
H304        H  0.37125380  0.52194208  0.19116620     0.07420
H305        H  0.31428764  0.55877355  0.27885131     0.08620
Cu306      Cu  0.45472368  0.53779562  0.23561207     0.44170
Cu307      Cu  0.40599323  0.56935428  0.30620565     0.41990
Cu308      Cu  0.51377486  0.56671118  0.30454257     0.43880
N309        N  0.51660399  0.53703236  0.23913328    -0.35000
N310        N  0.53821723  0.54739003  0.26502215    -0.29250
C311        C  0.57699116  0.54439430  0.25629964    -0.05350
C312        C  0.57993831  0.53158772  0.22314139     0.06860
C313        C  0.54107888  0.52725505  0.21307890     0.00660
H314        H  0.60104038  0.55186908  0.26968264     0.08310
H315        H  0.53132421  0.51839489  0.18607040     0.07390
N316        N  0.48184410  0.58560693  0.33714303    -0.36450
N317        N  0.44263607  0.58637811  0.33813581    -0.28630
C318        C  0.43120384  0.60014586  0.36108937    -0.03870
C319        C  0.46482255  0.60848326  0.37506016     0.04740
C320        C  0.49642690  0.59895799  0.35932139     0.02840
H321        H  0.40065842  0.60389474  0.36643818     0.07940
H322        H  0.52769362  0.60155495  0.36339373     0.06780
N323        N  0.87743766  0.55218276  0.96484106    -0.27610
N324        N  0.89556460  0.54038189  0.99008626    -0.35470
C325        C  0.86801782  0.53147639  0.01427559     0.00730
C326        C  0.83099033  0.53806477  0.00380948     0.06750
C327        C  0.83798490  0.55108289  0.97206784    -0.06350
H328        H  0.87438527  0.52090302  0.03741016     0.07420
H329        H  0.81607405  0.55912342  0.95534775     0.08620
Cu330      Cu  0.95706080  0.53692610  0.98943648     0.44170
Cu331      Cu  0.90734254  0.56923839  0.92191905     0.41990
Cu332      Cu  0.01554586  0.56639254  0.92004016     0.43880
N333        N  0.01899718  0.53624448  0.98505916    -0.35000
N334        N  0.04058596  0.54703552  0.96025287    -0.29250
C335        C  0.07937056  0.54418231  0.96977704    -0.05350
C336        C  0.08235778  0.53099082  0.00225271     0.06860
C337        C  0.04344594  0.52625414  0.01076328     0.00660
H338        H  0.10333409  0.55195438  0.95735861     0.08310
H339        H  0.03353699  0.51702587  0.03697110     0.07390
N340        N  0.98280973  0.58455812  0.88351331    -0.36450
N341        N  0.94357785  0.58540654  0.88379136    -0.28630
C342        C  0.93179926  0.59839530  0.85647799    -0.03870
C343        C  0.96517253  0.60614923  0.83823499     0.04740
C344        C  0.99699070  0.59707574  0.85613812     0.02840
H345        H  0.90117699  0.60197494  0.85070934     0.07940
H346        H  0.02817328  0.59936086  0.84967075     0.06780
N347        N  0.52743935  0.44841030  0.97329412    -0.27610
N348        N  0.50678718  0.46140678  0.98689040    -0.35470
C349        C  0.53133246  0.47202274  0.00907999     0.00730
C350        C  0.56934519  0.46541247  0.00994302     0.06750
C351        C  0.56572513  0.45045136  0.98640115    -0.06350
H352        H  0.52223936  0.48378439  0.02336865     0.07420
H353        H  0.58930067  0.44186429  0.97817284     0.08620
Cu354      Cu  0.44581101  0.46395635  0.97497417     0.44170
Cu355      Cu  0.50155334  0.42877340  0.93684548     0.41990
Cu356      Cu  0.39152250  0.42906726  0.93500653     0.43880
N357        N  0.38390660  0.46310636  0.97235082    -0.35000
N358        N  0.36348918  0.44985769  0.96195132    -0.29250
C359        C  0.32521103  0.45216341  0.97559062    -0.05350
C360        C  0.32119213  0.46776200  0.99503195     0.06860
C361        C  0.35913291  0.47430504  0.99136092     0.00660
H362        H  0.30298787  0.44268786  0.97581516     0.08310
H363        H  0.36897076  0.48571935  0.00705764     0.07390
N364        N  0.42729164  0.41125483  0.90285116    -0.36450
N365        N  0.46661145  0.41115683  0.90264440    -0.28630
C366        C  0.47943770  0.39808127  0.87685658    -0.03870
C367        C  0.44666178  0.38958983  0.86023539     0.04740
C368        C  0.41421698  0.39828549  0.87741965     0.02840
H369        H  0.51032132  0.39501181  0.87067313     0.07940
H370        H  0.38323891  0.39550612  0.87150332     0.06780
N371        N  0.02946032  0.44752126  0.25202796    -0.27610
N372        N  0.00939926  0.46044941  0.23612703    -0.35470
C373        C  0.03462052  0.47081281  0.21356289     0.00730
C374        C  0.07235268  0.46402131  0.21477334     0.06750
C375        C  0.06803899  0.44930453  0.23997103    -0.06350
H376        H  0.02621040  0.48252309  0.19776151     0.07420
H377        H  0.09127621  0.44080418  0.25048521     0.08620
Cu378      Cu  0.94837057  0.46306005  0.24474122     0.44170
Cu379      Cu  0.00251350  0.42840385  0.29009265     0.41990
Cu380      Cu  0.89298306  0.42796933  0.28427956     0.43880
N381        N  0.88693301  0.46152341  0.24053987    -0.35000
N382        N  0.86644473  0.44821511  0.25081714    -0.29250
C383        C  0.82902822  0.45016188  0.23356611    -0.05350
C384        C  0.82609181  0.46542697  0.21103903     0.06860
C385        C  0.86309545  0.47239256  0.21779836     0.00660
H386        H  0.80655834  0.44078581  0.23437928     0.08310
H387        H  0.87299075  0.48409908  0.20381124     0.07390
N388        N  0.92773490  0.41070616  0.32141519    -0.36450
N389        N  0.96696361  0.41095608  0.32424936    -0.28630
C390        C  0.97936553  0.39815863  0.35204555    -0.03870
C391        C  0.94641686  0.38944337  0.36721167     0.04740
C392        C  0.91425950  0.39773460  0.34716930     0.02840
H393        H  0.01010596  0.39537483  0.36028054     0.07940
H394        H  0.88324539  0.39462914  0.35111261     0.06780
C395        C  0.70269673  0.50206540  0.09731859    -0.02810
C396        C  0.20670433  0.50133147  0.13041401    -0.02810
C397        C  0.79373498  0.47208776  0.17894045    -0.06450
C398        C  0.75372140  0.47075585  0.19282069    -0.17570
C399        C  0.72313997  0.47911520  0.16663417     0.10750
C400        C  0.73299821  0.49030137  0.12640819    -0.06370
C401        C  0.77387614  0.49034202  0.11255789    -0.17610
C402        C  0.80279633  0.48085761  0.13546224     0.10780
S403        S  0.67371148  0.47502470  0.19070754    -0.32570
S404        S  0.85056242  0.47993036  0.10463281    -0.32580
H405        H  0.85824954  0.46356036  0.11790713     0.28790
H406        H  0.65050227  0.48457409  0.15867331     0.28790
H407        H  0.74622996  0.46343624  0.22528806     0.19380
H408        H  0.78563309  0.49768297  0.08307822     0.19390
C409        C  0.10947627  0.47214386  0.19882150    -0.06450
C410        C  0.11745465  0.48753001  0.21766065    -0.17570
C411        C  0.15030561  0.49670918  0.20230093     0.10750
C412        C  0.17594776  0.49071795  0.16231787    -0.06370
C413        C  0.16921202  0.47419138  0.14865315    -0.17610
C414        C  0.13649664  0.46518453  0.16534043     0.10780
S415        S  0.15597427  0.51457738  0.24247929    -0.32570
S416        S  0.12860366  0.44534349  0.13895718    -0.32580
H417        H  0.13617806  0.43724015  0.18436214     0.28790
H418        H  0.17778663  0.52575828  0.21421436     0.28790
H419        H  0.09763974  0.49243468  0.24582636     0.19380
H420        H  0.18897482  0.46769586  0.12446194     0.19390
C421        C  0.60599097  0.47368152  0.02754305    -0.06450
C422        C  0.61133321  0.49004536  0.01428807    -0.17570
C423        C  0.64526583  0.49875655  0.02843185     0.10750
C424        C  0.67230022  0.49181605  0.06454587    -0.06370
C425        C  0.66969783  0.47458222  0.07011339    -0.17610
C426        C  0.63672014  0.46568604  0.05387256     0.10780
S427        S  0.65655940  0.51658183  0.99013031    -0.32570
S428        S  0.63479975  0.44440247  0.07115864    -0.32580
H429        H  0.59399829  0.44450825  0.08232285     0.28790
H430        H  0.62374788  0.51606629  0.95784096     0.28790
H431        H  0.58967883  0.49575501  0.98988617     0.19380
H432        H  0.69254628  0.46767944  0.08886602     0.19390
C433        C  0.29011273  0.47393241  0.03001008    -0.06450
C434        C  0.30395915  0.48024345  0.07437468    -0.17570
C435        C  0.27963618  0.48800069  0.10895162     0.10750
C436        C  0.23738564  0.49005322  0.09980792    -0.06370
C437        C  0.22326228  0.48154420  0.05696430    -0.17610
C438        C  0.24880383  0.47395401  0.02197492     0.10780
S439        S  0.30885610  0.49425323  0.16154206    -0.32570
S440        S  0.22698901  0.46568739  0.96642387    -0.32580
H441        H  0.25909609  0.46932219  0.93478765     0.28790
H442        H  0.33010083  0.47947727  0.16707038     0.28790
H443        H  0.33546876  0.47927098  0.08215140     0.19380
H444        H  0.19184265  0.48184325  0.04848392     0.19390
C445        C  0.79232176  0.53167071  0.02054606    -0.06450
C446        C  0.77697693  0.51810088  0.99622733    -0.17570
C447        C  0.74578374  0.50892135  0.01680960     0.10750
C448        C  0.72772322  0.51387486  0.06307326    -0.06370
C449        C  0.74167822  0.52864901  0.08405945    -0.17610
C450        C  0.77369744  0.53728193  0.06405927     0.10780
S451        S  0.73695114  0.48929425  0.98839841    -0.32570
S452        S  0.79223950  0.55429497  0.09928904    -0.32580
H453        H  0.80649735  0.56321254  0.05817224     0.28790
H454        H  0.75220887  0.49322429  0.94095909     0.28790
H455        H  0.79222160  0.51375268  0.96326259     0.19380
H456        H  0.72996352  0.53311626  0.11889138     0.19390
C457        C  0.11726010  0.52611476  0.03280670    -0.06450
C458        C  0.15270883  0.52070221  0.01085082    -0.17570
C459        C  0.18488214  0.51483530  0.04006962     0.10750
C460        C  0.17971200  0.51214255  0.09309983    -0.06370
C461        C  0.14618810  0.52027415  0.11311503    -0.17610
C462        C  0.11578516  0.52709328  0.08477381     0.10780
S463        S  0.23156937  0.51431699  0.00639441    -0.32570
S464        S  0.07619808  0.53730848  0.11800090    -0.32580
H465        H  0.07049721  0.54968867  0.08202710     0.28790
H466        H  0.25748227  0.51522346  0.04692134     0.28790
H467        H  0.15584612  0.52154878  0.97068226     0.19380
H468        H  0.14215245  0.52159152  0.15166960     0.19390
C469        C  0.23108858  0.51294456  0.16433897    -0.06450
C470        C  0.24571578  0.52751670  0.14237439    -0.17570
C471        C  0.27547446  0.53673566  0.16439108     0.10750
C472        C  0.28973781  0.53229867  0.21169257    -0.06370
C473        C  0.27154077  0.51956815  0.23788791    -0.17610
C474        C  0.24409736  0.50928590  0.21454924     0.10780
S475        S  0.29664580  0.55314767  0.12802186    -0.32570
S476        S  0.23573939  0.49024357  0.24790417    -0.32580
H477        H  0.24033695  0.48001910  0.20650351     0.28790
H478        H  0.30856096  0.56257208  0.16884885     0.28790
H479        H  0.23591117  0.53152179  0.10605007     0.19380
H480        H  0.28312720  0.51613034  0.27421122     0.19390
C481        C  0.61523178  0.52682719  0.19369012    -0.06450
C482        C  0.64858034  0.51976379  0.21662766    -0.17570
C483        C  0.68085798  0.51393766  0.18802486     0.10750
C484        C  0.67713256  0.51288938  0.13469524    -0.06370
C485        C  0.64750473  0.52316381  0.11427679    -0.17610
C486        C  0.61671252  0.52981703  0.14223376     0.10780
S487        S  0.72664996  0.51144980  0.22230874    -0.32570
S488        S  0.58093017  0.54249223  0.10985073    -0.32580
H489        H  0.57443849  0.55330234  0.14956438     0.28790
H490        H  0.75181949  0.51579148  0.18273834     0.28790
H491        H  0.65008039  0.51929463  0.25698382     0.19380
H492        H  0.64860345  0.52675638  0.07631480     0.19390
C493        C  0.13804843  0.23526011  0.61363829    -0.06450
C494        C  0.12668680  0.23514306  0.56311662    -0.17570
C495        C  0.10262854  0.22296018  0.54361880     0.10750
C496        C  0.08909993  0.21031379  0.57491759    -0.06370
C497        C  0.10108258  0.20991125  0.62489355    -0.17610
C498        C  0.12466145  0.22231668  0.64486049     0.10780
S499        S  0.08733019  0.22506040  0.47943006    -0.32570
S500        S  0.13204434  0.22163882  0.71117082    -0.32580
H501        H  0.12355979  0.23822295  0.71762971     0.28790
H502        H  0.08491123  0.20825066  0.47010618     0.28790
H503        H  0.13523597  0.24494761  0.53840033     0.19380
H504        H  0.08938229  0.20053942  0.64950398     0.19390
C505        C  0.27244369  0.20772118  0.68255174    -0.06450
C506        C  0.25899396  0.21715000  0.72236594    -0.17570
C507        C  0.23169531  0.22979479  0.71480885     0.10750
C508        C  0.21682016  0.23296526  0.66614681    -0.06370
C509        C  0.22695713  0.22219777  0.62756289    -0.17610
C510        C  0.25531845  0.20987575  0.63500126     0.10780
S511        S  0.21886506  0.24169084  0.76888704    -0.32570
S512        S  0.27104524  0.19827671  0.58155797    -0.32580
H513        H  0.28406717  0.18446757  0.60852031     0.28790
H514        H  0.18212255  0.24724961  0.75117286     0.28790
H515        H  0.27204859  0.21543002  0.75898947     0.19380
H516        H  0.21568917  0.22437626  0.59026079     0.19390
C517        C  0.08717302  0.29148403  0.60028161    -0.06450
C518        C  0.11976825  0.28842612  0.56907681    -0.17570
C519        C  0.14672973  0.27578669  0.57978110     0.10750
C520        C  0.14091909  0.26596378  0.62295986    -0.06370
C521        C  0.11098648  0.27032298  0.65671123    -0.17610
C522        C  0.08460771  0.28308297  0.64637582     0.10780
S523        S  0.18604614  0.27265708  0.53510015    -0.32570
S524        S  0.04812538  0.28786539  0.69343759    -0.32580
H525        H  0.04422417  0.30442128  0.67987527     0.28790
H526        H  0.19509952  0.25648342  0.54778821     0.28790
H527        H  0.12263150  0.29508077  0.53419024     0.19380
H528        H  0.10721665  0.26342205  0.69088024     0.19390
C529        C  0.22269181  0.26365998  0.66053253    -0.06450
C530        C  0.21427956  0.27456664  0.69950872    -0.17570
C531        C  0.24333429  0.28536927  0.71700377     0.10750
C532        C  0.28031681  0.28634897  0.69212194    -0.06370
C533        C  0.28607835  0.27709032  0.64892760    -0.17610
C534        C  0.25862987  0.26548750  0.63377532     0.10780
S535        S  0.23292632  0.29602416  0.77403573    -0.32570
S536        S  0.27154491  0.25266893  0.58153630    -0.32580
H537        H  0.30533241  0.26124989  0.56553923     0.28790
H538        H  0.27036021  0.29282334  0.79525722     0.28790
H539        H  0.18648304  0.27357873  0.71956440     0.19380
H540        H  0.31351644  0.27829663  0.62827255     0.19390
C541        C  0.63529609  0.23480096  0.58856468    -0.06450
C542        C  0.64710512  0.22683171  0.63281531    -0.17570
C543        C  0.62262892  0.21527653  0.65609622     0.10750
C544        C  0.58620307  0.21111753  0.63363898    -0.06370
C545        C  0.57671806  0.21782941  0.58678920    -0.17610
C546        C  0.60040944  0.22976555  0.56446100     0.10780
S547        S  0.63756215  0.20777414  0.71654833    -0.32570
S548        S  0.58440765  0.23908481  0.50669230    -0.32580
H549        H  0.55066578  0.22938942  0.49916691     0.28790
H550        H  0.60008211  0.21004863  0.73867205     0.28790
H551        H  0.67383707  0.23066710  0.65166035     0.19380
H552        H  0.54928122  0.21434692  0.56891598     0.19390
C553        C  0.59038523  0.28939104  0.64197656    -0.06450
C554        C  0.59337259  0.28895088  0.58981963    -0.17570
C555        C  0.61731096  0.27726327  0.56596621     0.10750
C556        C  0.63764068  0.26546022  0.59503734    -0.06370
C557        C  0.63735787  0.26695366  0.64723188    -0.17610
C558        C  0.61383758  0.27865438  0.67096476     0.10780
S559        S  0.62008979  0.27719287  0.49884919    -0.32570
S560        S  0.61347470  0.27857104  0.73826552    -0.32580
H561        H  0.57302082  0.28228081  0.74431626     0.28790
H562        H  0.59767842  0.29149500  0.49055393     0.28790
H563        H  0.57535767  0.29729071  0.56782550     0.19380
H564        H  0.65406661  0.25838086  0.66996474     0.19390
C565        C  0.71530669  0.23479498  0.54785004    -0.06450
C566        C  0.74231589  0.23173466  0.58653092    -0.17570
C567        C  0.77043341  0.21928389  0.58323818     0.10750
C568        C  0.77368939  0.21024917  0.53874723    -0.06370
C569        C  0.74411138  0.21206781  0.50221723    -0.17610
C570        C  0.71419270  0.22402601  0.50700817     0.10780
S571        S  0.80086545  0.21547435  0.63745100    -0.32570
S572        S  0.67548390  0.22546257  0.46088037    -0.32580
H573        H  0.68719543  0.21180453  0.43287076     0.28790
H574        H  0.80674214  0.19877215  0.62781712     0.28790
H575        H  0.74178370  0.23925312  0.61957200     0.19380
H576        H  0.74561932  0.20471532  0.46889251     0.19390
C577        C  0.71495641  0.26545083  0.54520962    -0.06450
C578        C  0.73081039  0.27248354  0.58834511    -0.17570
C579        C  0.75939419  0.28471035  0.58532498     0.10750
C580        C  0.77273667  0.29008899  0.53811212    -0.06370
C581        C  0.75478328  0.28402925  0.49503232    -0.17610
C582        C  0.72634414  0.27163551  0.49801192     0.10780
S583        S  0.77848862  0.29260734  0.64306035    -0.32570
S584        S  0.70639343  0.26342949  0.44121292    -0.32580
H585        H  0.72406114  0.27466034  0.40817255     0.28790
H586        H  0.78764959  0.30817942  0.62398445     0.29150
H587        H  0.72220818  0.26788457  0.62473919     0.19380
H588        H  0.76514132  0.28820446  0.45890811     0.19390
C589        C  0.73253455  0.01048715  0.13401253    -0.06450
C590        C  0.76275087  0.01829036  0.10565207    -0.17570
C591        C  0.79279818  0.02740902  0.12701075     0.10750
C592        C  0.79453654  0.02886390  0.17897193    -0.06370
C593        C  0.76536855  0.02157018  0.20835826    -0.17610
C594        C  0.73520986  0.01204684  0.18760482     0.10780
S595        S  0.82751768  0.03725190  0.08538363    -0.32570
S596        S  0.70361186  0.00294635  0.23477976    -0.32580
H597        H  0.70667174  0.98670888  0.21981955     0.28790
H598        H  0.83409726  0.05086648  0.11586474     0.28790
H599        H  0.76224297  0.01773222  0.06533125     0.19380
H600        H  0.76750404  0.02257366  0.24857999     0.19390
C601        C  0.10992045  0.02905579  0.18810461    -0.06450
C602        C  0.13774832  0.02100770  0.21796691    -0.17570
C603        C  0.16815886  0.01136601  0.19750851     0.10750
C604        C  0.17237083  0.01041176  0.14388602    -0.06370
C605        C  0.14334725  0.01888467  0.11510225    -0.17610
C606        C  0.11322359  0.02820110  0.13612394     0.10780
S607        S  0.19811709  0.00144191  0.24511948    -0.32570
S608        S  0.08037334  0.03904236  0.09411794    -0.32580
H609        H  0.07319129  0.05227828  0.12606442     0.28790
H610        H  0.19691693  0.98547425  0.22758439     0.28790
H611        H  0.13432015  0.02153094  0.25815498     0.19380
H612        H  0.14501525  0.01876281  0.07478389     0.19390
C613        C  0.67635269  0.00976447  0.06511847    -0.06450
C614        C  0.65085100  0.99995173  0.03578806    -0.17570
C615        C  0.62085091  0.00639576  0.00591406     0.10750
C616        C  0.61423244  0.02330223  0.00500460    -0.06370
C617        C  0.64077140  0.03346785  0.02967508    -0.17610
C618        C  0.67170965  0.02722049  0.05954838     0.10780
S619        S  0.59203377  0.99225519  0.96981472    -0.32570
S620        S  0.69859253  0.04261551  0.09359368    -0.32580
H621        H  0.69266455  0.05554725  0.05949447     0.28790
H622        H  0.58366273  0.00329133  0.93071323     0.28790
H623        H  0.65401647  0.98678365  0.03690340     0.19380
H624        H  0.63516959  0.04650007  0.02876780     0.19390
C625        C  0.29192441  0.02371116  0.01682735    -0.06450
C626        C  0.26568256  0.03377542  0.04294436    -0.17570
C627        C  0.23484146  0.02743892  0.07264174     0.10750
C628        C  0.22983915  0.00997268  0.07645219    -0.06370
C629        C  0.25548130  0.00028025  0.04647986    -0.17610
C630        C  0.28537246  0.00682027  0.01675174     0.10780
S631        S  0.20853646  0.04265567  0.10875853    -0.32570
S632        S  0.31375939  0.99282100  0.97904526    -0.32580
H633        H  0.32093865  0.00402424  0.94008657     0.28790
H634        H  0.21454928  0.05593843  0.07606862     0.28790
H635        H  0.27132503  0.04677709  0.04302072     0.19380
H636        H  0.25225254  0.98712912  0.04653882     0.19390
C637        C  0.79397535  0.97209521  0.01608583    -0.06450
C638        C  0.79076382  0.96975314  0.06741891    -0.17570
C639        C  0.76154035  0.97772752  0.09564474     0.10750
C640        C  0.73310984  0.98837088  0.07189369    -0.06370
C641        C  0.73733089  0.99035701  0.01925023    -0.17610
C642        C  0.76669262  0.98234269  0.99166686     0.10780
S643        S  0.76391426  0.97466506  0.16231926    -0.32570
S644        S  0.77032387  0.98711771  0.92601662    -0.32580
H645        H  0.78490206  0.97179025  0.91141598     0.28790
H646        H  0.78927758  0.96096473  0.16278213     0.28790
H647        H  0.81290801  0.96221603  0.08586496     0.19380
H648        H  0.71980197  0.99909758  0.99850029     0.19390
C649        C  0.11328943  0.97307931  0.02153828    -0.06450
C650        C  0.11589104  0.97021563  0.07267411    -0.17570
C651        C  0.14436326  0.97795156  0.10222485     0.10750
C652        C  0.17280620  0.98884240  0.08011972    -0.06370
C653        C  0.16911868  0.99143658  0.02764974    -0.17610
C654        C  0.14038313  0.98369843  0.99871569     0.10780
S655        S  0.14090845  0.97418872  0.16843583    -0.32570
S656        S  0.13747513  0.98917421  0.93349835    -0.32580
H657        H  0.12230139  0.97421644  0.91713908     0.28790
H658        H  0.11919747  0.95959404  0.16628504     0.28790
H659        H  0.09384167  0.96244070  0.09001041     0.19380
H660        H  0.18664200  0.00042465  0.00819208     0.19390
C661        C  0.61014435  0.97059075  0.17725425    -0.06450
C662        C  0.60929457  0.98758248  0.17967805    -0.17570
C663        C  0.63869831  0.99722604  0.15795531     0.10750
C664        C  0.67240470  0.98975523  0.13382312    -0.06370
C665        C  0.67179531  0.97240914  0.13097074    -0.17610
C666        C  0.64162325  0.96293901  0.15209979     0.10780
S667        S  0.62755274  0.01882904  0.16086351    -0.32570
S668        S  0.64318548  0.94125734  0.14109413    -0.32580
H669        H  0.60236771  0.93986395  0.13112598     0.28790
H670        H  0.66588474  0.02429834  0.16913009     0.28790
H671        H  0.58454325  0.99355201  0.19810141     0.19380
H672        H  0.69326108  0.96576933  0.10926866     0.19390
C673        C  0.29468408  0.96976879  0.18585417    -0.06450
C674        C  0.29466929  0.98668038  0.19089856    -0.17570
C675        C  0.26532061  0.99657412  0.16973178     0.10750
C676        C  0.23245673  0.98941063  0.14361155    -0.06370
C677        C  0.23360502  0.97210902  0.13881021    -0.17610
C678        C  0.26385187  0.96240254  0.15929467     0.10780
S679        S  0.27591936  0.01809976  0.17526110    -0.32570
S680        S  0.26336957  0.94087940  0.14569586    -0.32580
H681        H  0.30435734  0.93964451  0.13629204     0.28790
H682        H  0.23757808  0.02350815  0.18492190     0.28790
H683        H  0.31899091  0.99240476  0.21048856     0.19380
H684        H  0.21271071  0.96574975  0.11584250     0.19390
C685        C  0.32720061  0.71202236  0.58252837    -0.06450
C686        C  0.34031850  0.72046195  0.62459101    -0.17570
C687        C  0.31588303  0.73148715  0.64950798     0.10750
C688        C  0.27640934  0.73403198  0.63287948    -0.06370
C689        C  0.26174550  0.72396533  0.59481519    -0.17610
C690        C  0.28693141  0.71338237  0.56852351     0.10780
S691        S  0.33876327  0.74236420  0.70015488    -0.32570
S692        S  0.26700454  0.70366132  0.51408939    -0.32580
H693        H  0.29977335  0.70726652  0.48345537     0.28790
H694        H  0.30416971  0.74768546  0.72371357     0.28790
H695        H  0.37081441  0.71907017  0.63683248     0.19380
H696        H  0.23163710  0.72555112  0.58170390     0.19390
C697        C  0.19298916  0.73368052  0.66956972    -0.06450
C698        C  0.16231391  0.73357875  0.63420596    -0.17570
C699        C  0.13352386  0.72146744  0.63422295     0.10750
C700        C  0.13350050  0.70952952  0.67246806    -0.06370
C701        C  0.16614765  0.70853271  0.70474052    -0.17610
C702        C  0.19630451  0.72027546  0.70329766     0.10780
S703        S  0.09815162  0.72184689  0.58376301    -0.32570
S704        S  0.23667829  0.71713686  0.74628931    -0.32580
H705        H  0.25448605  0.73212061  0.73869582     0.28790
H706        H  0.09165034  0.70489555  0.58407776     0.28790
H707        H  0.16054789  0.74317247  0.60625527     0.19380
H708        H  0.16715975  0.69904925  0.73311416     0.19390
C709        C  0.32395764  0.78975111  0.59755169    -0.06450
C710        C  0.30238697  0.78083965  0.56267115    -0.17570
C711        C  0.27669638  0.76842375  0.57781391     0.10750
C712        C  0.27206281  0.76484106  0.62934090    -0.06370
C713        C  0.28983013  0.77519678  0.66418744    -0.17610
C714        C  0.31655455  0.78729222  0.64890361     0.10780
S715        S  0.25174239  0.75750633  0.52893689    -0.32570
S716        S  0.34173701  0.79861412  0.69665129    -0.32580
H717        H  0.34815648  0.81270658  0.66754699     0.28790
H718        H  0.21915235  0.75249085  0.55755468     0.28790
H719        H  0.30737512  0.78289954  0.52317489     0.19380
H720        H  0.28482283  0.77324589  0.70364392     0.19390
C721        C  0.19556266  0.76407647  0.68248865    -0.06450
C722        C  0.18246327  0.77431248  0.64345476    -0.17570
C723        C  0.15344328  0.78628046  0.65126648     0.10750
C724        C  0.13626372  0.78796690  0.69890641    -0.06370
C725        C  0.15117822  0.77868210  0.73877465    -0.17610
C726        C  0.18081050  0.76690612  0.73109819     0.10780
S727        S  0.13814090  0.79851727  0.59843196    -0.32570
S728        S  0.19782914  0.75551958  0.78444358    -0.32580
H729        H  0.23795519  0.75717626  0.77092471     0.28790
H730        H  0.12617825  0.81217963  0.62625890     0.28790
H731        H  0.19312298  0.77245716  0.60596127     0.19380
H732        H  0.13831334  0.78003539  0.77559878     0.19390
C733        C  0.69893794  0.73478539  0.53309124    -0.06450
C734        C  0.66951476  0.73307921  0.56984063    -0.17570
C735        C  0.63942905  0.72164428  0.56556761     0.10750
C736        C  0.63715464  0.71206197  0.52222175    -0.06370
C737        C  0.66878874  0.71237421  0.48809536    -0.17610
C738        C  0.70019387  0.72342155  0.49348478     0.10780
S739        S  0.60493408  0.71994719  0.61684408    -0.32570
S740        S  0.73932201  0.72239610  0.44762967    -0.32580
H741        H  0.76404173  0.73415189  0.46822019     0.28790
H742        H  0.59658900  0.70333936  0.60932452     0.28790
H743        H  0.66946622  0.74105572  0.60189661     0.19380
H744        H  0.66801585  0.70458370  0.45563629     0.19390
C745        C  0.82794298  0.70910832  0.61622603    -0.06450
C746        C  0.84176765  0.71803952  0.57492132    -0.17570
C747        C  0.81901643  0.73048897  0.55309296     0.10750
C748        C  0.78050573  0.73376560  0.57140613    -0.06370
C749        C  0.76515493  0.72373921  0.60965269    -0.17610
C750        C  0.78855567  0.71161789  0.63260800     0.10780
S751        S  0.84101669  0.74285269  0.50450073    -0.32570
S752        S  0.76795449  0.70119112  0.68591654    -0.32580
H753        H  0.80166875  0.70323051  0.71605108     0.28790
H754        H  0.87616557  0.73371455  0.49867067     0.28790
H755        H  0.87176914  0.71595518  0.56181720     0.19380
H756        H  0.73626151  0.72643865  0.62528747     0.19390
C757        C  0.69966767  0.76527969  0.53070228    -0.06450
C758        C  0.68804229  0.77350117  0.57428789    -0.17570
C759        C  0.65811179  0.78539790  0.57342315     0.10750
C760        C  0.63900038  0.78926429  0.52806855    -0.06370
C761        C  0.65193056  0.78183927  0.48412681    -0.17610
C762        C  0.68146016  0.76980106  0.48489931     0.10780
S763        S  0.64458145  0.79473533  0.63173259    -0.32570
S764        S  0.69162312  0.75996427  0.42644000    -0.32580
H765        H  0.73179010  0.75721565  0.43580204     0.28790
H766        H  0.63196557  0.80967502  0.61077568     0.28790
H767        H  0.70048869  0.76989287  0.60994218     0.19380
H768        H  0.63709848  0.78468741  0.44924109     0.19390
C769        C  0.77789296  0.76435173  0.58229915    -0.06450
C770        C  0.78414832  0.76361486  0.63419237    -0.17570
C771        C  0.80586626  0.77549628  0.65905970     0.10750
C772        C  0.82183485  0.78868076  0.63193223    -0.06370
C773        C  0.81303563  0.79029699  0.58104971    -0.17610
C774        C  0.79127430  0.77835916  0.55583469     0.10780
S775        S  0.81504022  0.77238776  0.72468562    -0.32570
S776        S  0.78426640  0.78159314  0.48995544    -0.32580
H777        H  0.78423539  0.76510516  0.47753691     0.28790
H778        H  0.81714971  0.78902949  0.73653800     0.28790
H779        H  0.77304683  0.75335295  0.65560659     0.19380
H780        H  0.82553685  0.80039526  0.56005188     0.19390
loop_ 
_geom_bond_atom_site_label_1 
_geom_bond_atom_site_label_2 
_geom_bond_distance 
_geom_bond_site_symmetry_2 
_ccdc_geom_bond_type 
C1            C2   1.370       .  D
C1          C748   1.500       .  S
C1          C769   1.504       .  S
C2          C733   1.493       .  S
C2          C757   1.498       .  S
C3            C4   1.367       .  D
C3          C697   1.496       .  S
C3          C721   1.500       .  S
C4          C688   1.497       .  S
C4          C712   1.497       .  S
N5            N6   1.323       .  A
N5            C9   1.348       .  A
N5          Cu13   2.084       .  S
N6            C7   1.343       .  A
N6          Cu12   2.067       .  S
C7            C8   1.380       .  A
C7           H10   1.082       .  S
C8            C9   1.385       .  A
C8          C709   1.474       .  S
C9           H11   1.082       .  S
Cu12         N15   2.066       .  S
Cu13         N23   2.084       .  S
Cu14         N16   2.066       .  S
Cu14         N22   2.067       .  S
N15          N16   1.321       .  A
N15          C19   1.343       .  A
N16          C17   1.345       .  A
C17          C18   1.383       .  A
C17          H20   1.082       .  S
C18          C19   1.382       .  A
C18         C760   1.473       .  S
C19          H21   1.082       .  S
N22          N23   1.323       .  A
N22          C26   1.342       .  A
N23          C24   1.348       .  A
C24          C25   1.385       .  A
C24          H27   1.082       .  S
C25          C26   1.380       .  A
C25         C121   1.471       .  S
C26          H28   1.082       .  S
N29          N30   1.320       .  A
N29          C33   1.351       .  A
N29         Cu37   2.080       .  S
N30          C31   1.337       .  A
N30         Cu36   2.053       .  S
C31          C32   1.381       .  A
C31          H34   1.082       .  S
C32          C33   1.390       .  A
C32         C685   1.480       .  S
C33          H35   1.082       .  S
Cu36         N39   2.053       .  S
Cu37         N47   2.083       .  S
Cu38         N40   2.070       .  S
Cu38         N46   2.072       .  S
N39          N40   1.319       .  A
N39          C43   1.338       .  A
N40          C41   1.348       .  A
C41          C42   1.386       .  A
C41          H44   1.082       .  S
C42          C43   1.382       .  A
C42         C736   1.477       .  S
C43          H45   1.082       .  S
N46          N47   1.325       .  A
N46          C50   1.343       .  A
N47          C48   1.345       .  A
C48          C49   1.383       .  A
C48          H51   1.082       .  S
C49          C50   1.379       .  A
C49         C319   1.468       .  S
C50          H52   1.082       .  S
N53          N54   1.322       .  A
N53          C57   1.351       .  A
N53         Cu61   2.092       .  S
N54          C55   1.340       .  A
N54         Cu60   2.058       .  S
C55          C56   1.376       .  A
C55          H58   1.082       .  S
C56          C57   1.387       .  A
C56         C772   1.473       .  S
C57          H59   1.082       .  S
Cu60         N63   2.058   1_655  S
Cu61         N71   2.093       .  S
Cu62         N64   2.076       .  S
Cu62         N70   2.078   1_455  S
N63          N64   1.320       .  A
N63          C67   1.341       .  A
N64          C65   1.349       .  A
C65          C66   1.385       .  A
C65          H68   1.082       .  S
C66          C67   1.379       .  A
C66         C724   1.471       .  S
C67          H69   1.082       .  S
N70          N71   1.325       .  A
N70          C74   1.344       .  A
N71          C72   1.349       .  A
C72          C73   1.386       .  A
C72          H75   1.082       .  S
C73          C74   1.381       .  A
C73         C145   1.475       .  S
C74          H76   1.082   1_655  S
N77          N78   1.319       .  A
N77          C81   1.353       .  A
N77         Cu85   2.092       .  S
N78          C79   1.335       .  A
N78         Cu84   2.041       .  S
C79          C80   1.378       .  A
C79          H82   1.082       .  S
C80          C81   1.393       .  A
C80         C745   1.482       .  S
C81          H83   1.082       .  S
Cu84         N87   2.041   1_655  S
Cu85         N95   2.096       .  S
Cu86         N88   2.079       .  S
Cu86         N94   2.083   1_455  S
N87          N88   1.318       .  A
N87          C91   1.336       .  A
N88          C89   1.350       .  A
C89          C90   1.391       .  A
C89          H92   1.082       .  S
C90          C91   1.380       .  A
C90         C700   1.480       .  S
C91          H93   1.082       .  S
N94          N95   1.327       .  A
N94          C98   1.345       .  A
N95          C96   1.347       .  A
C96          C97   1.384       .  A
C96          H99   1.082       .  S
C97          C98   1.380       .  A
C97         C343   1.473       .  S
C98         H100   1.082   1_655  S
N101        N102   1.320       .  A
N101        C105   1.349       .  A
N101       Cu109   2.079       .  S
N102        C103   1.336       .  A
N102       Cu108   2.040       .  S
C103        C104   1.377       .  A
C103        H106   1.082       .  S
C104        C105   1.388       .  A
C104        C673   1.474       .  S
C105        H107   1.082       .  S
Cu108       N111   2.040       .  S
Cu109       N119   2.081       .  S
Cu110       N112   2.079       .  S
Cu110       N118   2.082       .  S
N111        N112   1.319       .  A
N111        C115   1.337       .  A
N112        C113   1.349       .  A
C113        C114   1.390       .  A
C113        H116   1.082       .  S
C114        C115   1.379       .  A
C114        C661   1.477       .  S
C115        H117   1.082       .  S
N118        N119   1.326       .  A
N118        C122   1.344       .  A
N119        C120   1.347       .  A
C120        C121   1.382       .  A
C120        H123   1.082       .  S
C121        C122   1.382       .  A
C122        H124   1.082       .  S
N125        N126   1.322       .  A
N125        C129   1.348       .  A
N125       Cu133   2.080       .  S
N126        C127   1.342       .  A
N126       Cu132   2.065       .  S
C127        C128   1.379       .  A
C127        H130   1.082   1_556  S
C128        C129   1.384       .  A
C128        C637   1.471   1_556  S
C129        H131   1.082       .  S
Cu132       N135   2.065   1_655  S
Cu133       N143   2.081       .  S
Cu134       N136   2.081       .  S
Cu134       N142   2.083   1_455  S
N135        N136   1.322       .  A
N135        C139   1.343       .  A
N136        C137   1.348       .  A
C137        C138   1.385       .  A
C137        H140   1.082       .  S
C138        C139   1.380       .  A
C138        C649   1.473   1_556  S
C139        H141   1.082   1_556  S
N142        N143   1.324       .  A
N142        C146   1.345       .  A
N143        C144   1.347       .  A
C144        C145   1.384       .  A
C144        H147   1.082       .  S
C145        C146   1.384       .  A
C146        H148   1.082   1_655  S
N149        N150   1.321       .  A
N149        C153   1.346       .  A
N149       Cu157   2.070       .  S
N150        C151   1.341       .  A
N150       Cu156   2.062       .  S
C151        C152   1.382       .  A
C151        H154   1.082   1_556  S
C152        C153   1.385       .  A
C152        C616   1.476   1_556  S
C153        H155   1.082       .  S
Cu156       N159   2.062       .  S
Cu157       N167   2.071       .  S
Cu158       N160   2.074       .  S
Cu158       N166   2.075       .  S
N159        N160   1.321       .  A
N159        C163   1.342   1_556  A
N160        C161   1.346       .  A
C161        C162   1.386       .  A
C161        H164   1.082       .  S
C162        C163   1.383   1_556  A
C162        C625   1.479   1_556  S
C163        H165   1.082       .  S
N166        N167   1.323       .  A
N166        C170   1.343       .  A
N167        C168   1.345       .  A
C168        C169   1.382       .  A
C168        H171   1.082       .  S
C169        C170   1.382       .  A
C169        C247   1.469       .  S
C170        H172   1.082       .  S
N173        N174   1.320       .  A
N173        C177   1.349       .  A
N173       Cu181   2.081       .  S
N174        C175   1.337       .  A
N174       Cu180   2.036   1_455  S
C175        C176   1.374       .  A
C175        H178   1.082       .  S
C176        C177   1.386       .  A
C176        C601   1.467       .  S
C177        H179   1.082       .  S
Cu180       N183   2.036       .  S
Cu181       N191   2.084   1_455  S
Cu182       N184   2.076       .  S
Cu182       N190   2.079       .  S
N183        N184   1.319       .  A
N183        C187   1.337       .  A
N184        C185   1.348       .  A
C185        C186   1.386       .  A
C185        H188   1.082       .  S
C186        C187   1.376       .  A
C186        C592   1.467       .  S
C187        H189   1.082       .  S
N190        N191   1.325       .  A
N190        C194   1.344       .  A
N191        C192   1.346       .  A
C192        C193   1.383       .  A
C192        H195   1.082   1_655  S
C193        C194   1.381       .  A
C193        C223   1.472       .  S
C194        H196   1.082       .  S
C197        C589   1.567   1_565  S
C197        C613   1.580   1_565  S
C197        C640   1.594       .  S
C197        C664   1.574       .  S
C198        C604   1.566   1_565  S
C198        C628   1.582   1_565  S
C198        C652   1.595       .  S
C198        C676   1.572       .  S
C199        C200   1.361       .  D
C199        C541   1.491       .  S
C199        C556   1.496       .  S
C200        C565   1.491       .  S
C200        C577   1.491       .  S
C201        C202   1.367       .  D
C201        C508   1.493       .  S
C201        C529   1.499       .  S
C202        C493   1.507       .  S
C202        C520   1.491       .  S
N203        N204   1.320   1_455  A
N203        C207   1.350       .  A
N203       Cu211   2.086   1_455  S
N204        C205   1.339   1_655  A
N204       Cu210   2.049       .  S
C205        C206   1.376       .  A
C205        H208   1.082       .  S
C206        C207   1.388       .  A
C206        C496   1.471       .  S
C207        H209   1.082       .  S
Cu210       N213   2.049       .  S
Cu211       N221   2.088       .  S
Cu212       N214   2.079       .  S
Cu212       N220   2.081       .  S
N213        N214   1.319       .  A
N213        C217   1.337       .  A
N214        C215   1.350       .  A
C215        C216   1.390       .  A
C215        H218   1.082       .  S
C216        C217   1.381       .  A
C216        C568   1.479       .  S
C217        H219   1.082       .  S
N220        N221   1.326       .  A
N220        C224   1.344       .  A
N221        C222   1.347       .  A
C222        C223   1.383       .  A
C222        H225   1.082   1_655  S
C223        C224   1.381       .  A
C224        H226   1.082       .  S
N227        N228   1.321       .  A
N227        C231   1.352       .  A
N227       Cu235   2.085       .  S
N228        C229   1.335       .  A
N228       Cu234   2.047       .  S
C229        C230   1.378       .  A
C229        H232   1.082       .  S
C230        C231   1.391       .  A
C230        C544   1.479       .  S
C231        H233   1.082       .  S
Cu234       N237   2.048       .  S
Cu235       N245   2.088       .  S
Cu236       N238   2.069       .  S
Cu236       N244   2.071       .  S
N237        N238   1.319       .  A
N237        C241   1.340       .  A
N238        C239   1.347       .  A
C239        C240   1.384       .  A
C239        H242   1.082       .  S
C240        C241   1.378       .  A
C240        C505   1.466       .  S
C241        H243   1.082       .  S
N244        N245   1.326       .  A
N244        C248   1.342       .  A
N245        C246   1.347       .  A
C246        C247   1.384       .  A
C246        H249   1.082       .  S
C247        C248   1.379       .  A
C248        H250   1.082       .  S
N251        N252   1.321   1_455  A
N251        C255   1.349       .  A
N251       Cu259   2.085   1_455  S
N252        C253   1.338   1_655  A
N252       Cu258   2.051       .  S
C253        C254   1.380       .  A
C253        H256   1.082       .  S
C254        C255   1.390       .  A
C254        C517   1.480       .  S
C255        H257   1.082       .  S
Cu258       N261   2.051       .  S
Cu259       N269   2.087       .  S
Cu260       N262   2.071       .  S
Cu260       N268   2.073       .  S
N261        N262   1.319       .  A
N261        C265   1.340       .  A
N262        C263   1.347       .  A
C263        C264   1.386       .  A
C263        H266   1.082       .  S
C264        C265   1.380       .  A
C264        C580   1.473       .  S
C265        H267   1.082       .  S
N268        N269   1.325       .  A
N268        C272   1.343       .  A
N269        C270   1.347       .  A
C270        C271   1.384       .  A
C270        H273   1.082   1_655  S
C271        C272   1.380       .  A
C271        C391   1.471       .  S
C272        H274   1.082       .  S
N275        N276   1.320       .  A
N275        C279   1.351       .  A
N275       Cu283   2.088       .  S
N276        C277   1.339       .  A
N276       Cu282   2.049       .  S
C277        C278   1.376       .  A
C277        H280   1.082       .  S
C278        C279   1.388       .  A
C278        C553   1.471       .  S
C279        H281   1.082       .  S
Cu282       N285   2.048       .  S
Cu283       N293   2.092       .  S
Cu284       N286   2.082       .  S
Cu284       N292   2.086       .  S
N285        N286   1.318       .  A
N285        C289   1.335       .  A
N286        C287   1.352       .  A
C287        C288   1.393       .  A
C287        H290   1.081       .  S
C288        C289   1.383       .  A
C288        C532   1.487       .  S
C289        H291   1.082       .  S
N292        N293   1.327       .  A
N292        C296   1.344       .  A
N293        C294   1.348       .  A
C294        C295   1.384       .  A
C294        H297   1.082       .  S
C295        C296   1.381       .  A
C295        C367   1.474       .  S
C296        H298   1.082       .  S
N299        N300   1.322       .  A
N299        C303   1.346       .  A
N299       Cu307   2.059       .  S
N300        C301   1.345       .  A
N300       Cu306   2.087       .  S
C301        C302   1.384       .  A
C301        H304   1.082       .  S
C302        C303   1.378       .  A
C302        C472   1.471       .  S
C303        H305   1.082       .  S
Cu306       N309   2.088       .  S
Cu307       N317   2.060       .  S
Cu308       N310   2.077       .  S
Cu308       N316   2.077       .  S
N309        N310   1.323       .  A
N309        C313   1.345       .  A
N310        C311   1.348       .  A
C311        C312   1.383       .  A
C311        H314   1.082       .  S
C312        C313   1.386       .  A
C312        C481   1.479       .  S
C313        H315   1.082       .  S
N316        N317   1.322       .  A
N316        C320   1.345       .  A
N317        C318   1.343       .  A
C318        C319   1.380       .  A
C318        H321   1.082       .  S
C319        C320   1.384       .  A
C320        H322   1.082       .  S
N323        N324   1.323       .  A
N323        C327   1.346       .  A
N323       Cu331   2.069       .  S
N324        C325   1.347   1_556  A
N324       Cu330   2.089       .  S
C325        C326   1.384       .  A
C325        H328   1.082       .  S
C326        C327   1.380   1_554  A
C326        C445   1.475       .  S
C327        H329   1.082       .  S
Cu330       N333   2.090   1_655  S
Cu331       N341   2.070       .  S
Cu332       N334   2.085       .  S
Cu332       N340   2.086   1_455  S
N333        N334   1.323       .  A
N333        C337   1.345   1_556  A
N334        C335   1.350       .  A
C335        C336   1.386   1_556  A
C335        H338   1.082       .  S
C336        C337   1.388       .  A
C336        C457   1.485       .  S
C337        H339   1.082       .  S
N340        N341   1.323       .  A
N340        C344   1.346       .  A
N341        C342   1.345       .  A
C342        C343   1.382       .  A
C342        H345   1.082       .  S
C343        C344   1.385       .  A
C344        H346   1.082   1_655  S
N347        N348   1.322       .  A
N347        C351   1.349       .  A
N347       Cu355   2.085       .  S
N348        C349   1.346   1_556  A
N348       Cu354   2.088       .  S
C349        C350   1.388       .  A
C349        H352   1.082       .  S
C350        C351   1.389   1_554  A
C350        C421   1.491       .  S
C351        H353   1.081       .  S
Cu354       N357   2.088       .  S
Cu355       N365   2.086       .  S
Cu356       N358   2.077       .  S
Cu356       N364   2.079       .  S
N357        N358   1.320       .  A
N357        C361   1.340       .  A
N358        C359   1.353       .  A
C359        C360   1.390       .  A
C359        H362   1.082       .  S
C360        C361   1.392       .  A
C360        C433   1.493   1_556  S
C361        H363   1.082   1_556  S
N364        N365   1.325       .  A
N364        C368   1.344       .  A
N365        C366   1.348       .  A
C366        C367   1.385       .  A
C366        H369   1.082       .  S
C367        C368   1.382       .  A
C368        H370   1.082       .  S
N371        N372   1.321       .  A
N371        C375   1.347       .  A
N371       Cu379   2.076       .  S
N372        C373   1.345       .  A
N372       Cu378   2.079   1_455  S
C373        C374   1.385       .  A
C373        H376   1.082       .  S
C374        C375   1.386       .  A
C374        C409   1.481       .  S
C375        H377   1.081       .  S
Cu378       N381   2.078       .  S
Cu379       N389   2.077   1_455  S
Cu380       N382   2.078       .  S
Cu380       N388   2.079       .  S
N381        N382   1.321       .  A
N381        C385   1.339       .  A
N382        C383   1.351       .  A
C383        C384   1.388       .  A
C383        H386   1.082       .  S
C384        C385   1.387       .  A
C384        C397   1.488       .  S
C385        H387   1.081       .  S
N388        N389   1.324       .  A
N388        C392   1.344       .  A
N389        C390   1.346       .  A
C390        C391   1.382       .  A
C390        H393   1.082   1_655  S
C391        C392   1.382       .  A
C392        H394   1.082       .  S
C395        C400   1.599       .  S
C395        C424   1.597       .  S
C395        C448   1.576       .  S
C395        C484   1.592       .  S
C396        C412   1.600       .  S
C396        C436   1.610       .  S
C396        C460   1.610       .  S
C396        C469   1.560       .  S
C397        C398   1.403       .  A
C397        C402   1.399       .  A
C398        C399   1.418       .  A
C398        H407   1.084       .  S
C399        C400   1.449       .  A
C399        S403   1.817       .  S
C400        C401   1.426       .  A
C401        C402   1.384       .  A
C401        H408   1.067       .  S
C402        S404   1.810       .  S
S403        H406   1.395       .  S
S404        H405   1.407       .  S
C409        C410   1.389       .  A
C409        C414   1.400       .  A
C410        C411   1.401       .  A
C410        H419   1.085       .  S
C411        C412   1.462       .  A
C411        S415   1.835       .  S
C412        C413   1.425       .  A
C413        C414   1.401       .  A
C413        H420   1.071       .  S
C414        S416   1.799       .  S
S415        H418   1.396       .  S
S416        H417   1.405       .  S
C421        C422   1.397       .  A
C421        C426   1.409       .  A
C422        C423   1.405       .  A
C422        H431   1.082   1_554  S
C423        C424   1.442       .  A
C423        S427   1.821   1_554  S
C424        C425   1.422       .  A
C425        C426   1.404       .  A
C425        H432   1.075       .  S
C426        S428   1.802       .  S
S427        H430   1.406       .  S
S428        H429   1.406       .  S
C433        C434   1.383       .  A
C433        C438   1.409       .  A
C434        C435   1.391       .  A
C434        H443   1.084       .  S
C435        C436   1.453       .  A
C435        S439   1.800       .  S
C436        C437   1.432       .  A
C437        C438   1.417       .  A
C437        H444   1.083       .  S
C438        S440   1.801   1_554  S
S439        H442   1.409       .  S
S440        H441   1.406       .  S
C445        C446   1.395   1_554  A
C445        C450   1.403       .  A
C446        C447   1.406   1_556  A
C446        H455   1.083       .  S
C447        C448   1.441       .  A
C447        S451   1.811   1_554  S
C448        C449   1.421       .  A
C449        C450   1.398       .  A
C449        H456   1.079       .  S
C450        S452   1.805       .  S
S451        H454   1.407       .  S
S452        H453   1.404       .  S
C457        C458   1.402       .  A
C457        C462   1.397       .  A
C458        C459   1.418       .  A
C458        H467   1.084   1_554  S
C459        C460   1.448       .  A
C459        S463   1.813       .  S
C460        C461   1.415       .  A
C461        C462   1.388       .  A
C461        H468   1.049       .  S
C462        S464   1.808       .  S
S463        H466   1.398       .  S
S464        H465   1.407       .  S
C469        C470   1.418       .  A
C469        C474   1.445       .  A
C470        C471   1.393       .  A
C470        H479   1.077       .  S
C471        C472   1.401       .  A
C471        S475   1.805       .  S
C472        C473   1.397       .  A
C473        C474   1.405       .  A
C473        H480   1.084       .  S
C474        S476   1.815       .  S
S475        H478   1.405       .  S
S476        H477   1.404       .  S
C481        C482   1.401       .  A
C481        C486   1.400       .  A
C482        C483   1.413       .  A
C482        H491   1.084       .  S
C483        C484   1.439       .  A
C483        S487   1.807       .  S
C484        C485   1.410       .  A
C485        C486   1.390       .  A
C485        H492   1.058       .  S
C486        S488   1.805       .  S
S487        H490   1.402       .  S
S488        H489   1.406       .  S
C493        C494   1.408       .  A
C493        C498   1.421       .  A
C494        C495   1.395       .  A
C494        H503   1.078       .  S
C495        C496   1.406       .  A
C495        S499   1.804       .  S
C496        C497   1.400       .  A
C497        C498   1.403       .  A
C497        H504   1.084       .  S
C498        S500   1.796       .  S
S499        H502   1.404       .  S
S500        H501   1.399       .  S
C505        C506   1.396       .  A
C505        C510   1.410       .  A
C506        C507   1.395       .  A
C506        H515   1.084       .  S
C507        C508   1.420       .  A
C507        S511   1.804       .  S
C508        C509   1.405       .  A
C509        C510   1.399       .  A
C509        H516   1.083       .  S
C510        S512   1.803       .  S
S511        H514   1.399       .  S
S512        H513   1.406       .  S
C517        C518   1.402       .  A
C517        C522   1.413       .  A
C518        C519   1.402       .  A
C518        H527   1.084       .  S
C519        C520   1.419       .  A
C519        S523   1.803       .  S
C520        C521   1.401       .  A
C521        C522   1.394       .  A
C521        H528   1.081       .  S
C522        S524   1.804       .  S
S523        H526   1.397       .  S
S524        H525   1.407       .  S
C529        C530   1.408       .  A
C529        C534   1.415       .  A
C530        C531   1.407       .  A
C530        H539   1.082       .  S
C531        C532   1.415       .  A
C531        S535   1.800       .  S
C532        C533   1.402       .  A
C533        C534   1.393       .  A
C533        H540   1.082       .  S
C534        S536   1.808       .  S
S535        H538   1.407       .  S
S536        H537   1.406       .  S
C541        C542   1.407       .  A
C541        C546   1.408       .  A
C542        C543   1.402       .  A
C542        H551   1.083       .  S
C543        C544   1.412       .  A
C543        S547   1.800       .  S
C544        C545   1.404       .  A
C545        C546   1.397       .  A
C545        H552   1.083       .  S
C546        S548   1.803       .  S
S547        H550   1.406       .  S
S548        H549   1.406       .  S
C553        C554   1.403       .  A
C553        C558   1.409       .  A
C554        C555   1.405       .  A
C554        H563   1.083       .  S
C555        C556   1.412       .  A
C555        S559   1.802       .  S
C556        C557   1.406       .  A
C557        C558   1.397       .  A
C557        H564   1.082       .  S
C558        S560   1.805       .  S
S559        H562   1.406       .  S
S560        H561   1.404       .  S
C565        C566   1.401       .  A
C565        C570   1.412       .  A
C566        C567   1.391       .  A
C566        H575   1.083       .  S
C567        C568   1.413       .  A
C567        S571   1.804       .  S
C568        C569   1.405       .  A
C569        C570   1.408       .  A
C569        H576   1.082       .  S
C570        S572   1.801       .  S
S571        H574   1.407       .  S
S572        H573   1.407       .  S
C577        C578   1.404       .  A
C577        C582   1.413       .  A
C578        C579   1.395       .  A
C578        H587   1.083       .  S
C579        C580   1.411       .  A
C579        S583   1.803       .  S
C580        C581   1.400       .  A
C581        C582   1.402       .  A
C581        H588   1.083       .  S
C582        S584   1.802       .  S
S583        H586   1.407       .  S
S584        H585   1.406       .  S
C589        C590   1.422       .  A
C589        C594   1.447       .  A
C590        C591   1.389       .  A
C590        H599   1.083       .  S
C591        C592   1.401       .  A
C591        S595   1.805       .  S
C592        C593   1.393       .  A
C593        C594   1.403       .  A
C593        H600   1.085       .  S
C594        S596   1.811       .  S
S595        H598   1.407       .  S
S596        H597   1.395   1_545  S
C601        C602   1.393       .  A
C601        C606   1.400       .  A
C602        C603   1.404       .  A
C602        H611   1.085       .  S
C603        C604   1.447       .  A
C603        S607   1.813       .  S
C604        C605   1.421       .  A
C605        C606   1.388       .  A
C605        H612   1.083       .  S
C606        S608   1.805       .  S
S607        H610   1.394   1_545  S
S608        H609   1.407       .  S
C613        C614   1.422   1_545  A
C613        C618   1.444       .  A
C614        C615   1.390   1_565  A
C614        H623   1.084       .  S
C615        C616   1.402       .  A
C615        S619   1.804   1_544  S
C616        C617   1.396       .  A
C617        C618   1.407       .  A
C617        H624   1.083       .  S
C618        S620   1.810       .  S
S619        H622   1.407   1_565  S
S620        H621   1.408       .  S
C625        C626   1.396       .  A
C625        C630   1.403       .  A
C626        C627   1.407       .  A
C626        H635   1.083       .  S
C627        C628   1.445       .  A
C627        S631   1.811       .  S
C628        C629   1.422       .  A
C629        C630   1.391       .  A
C629        H636   1.083   1_545  S
C630        S632   1.804   1_544  S
S631        H634   1.407       .  S
S632        H633   1.407   1_565  S
C637        C638   1.392       .  A
C637        C642   1.401   1_554  A
C638        C639   1.402       .  A
C638        H647   1.083       .  S
C639        C640   1.437       .  A
C639        S643   1.805       .  S
C640        C641   1.427       .  A
C641        C642   1.398   1_554  A
C641        H648   1.077   1_554  S
C642        S644   1.804       .  S
S643        H646   1.406       .  S
S644        H645   1.404       .  S
C649        C650   1.392       .  A
C649        C654   1.402   1_554  A
C650        C651   1.402       .  A
C650        H659   1.083       .  S
C651        C652   1.437       .  A
C651        S655   1.803       .  S
C652        C653   1.427       .  A
C653        C654   1.399   1_554  A
C653        H660   1.078   1_565  S
C654        S656   1.805       .  S
S655        H658   1.407       .  S
S656        H657   1.404       .  S
C661        C662   1.394       .  A
C661        C666   1.403       .  A
C662        C663   1.395       .  A
C662        H671   1.085       .  S
C663        C664   1.442       .  A
C663        S667   1.809   1_565  S
C664        C665   1.424       .  A
C665        C666   1.399       .  A
C665        H672   1.075       .  S
C666        S668   1.803       .  S
S667        H670   1.388       .  S
S668        H669   1.407       .  S
C673        C674   1.393       .  A
C673        C678   1.402       .  A
C674        C675   1.393       .  A
C674        H683   1.085       .  S
C675        C676   1.441       .  A
C675        S679   1.809   1_565  S
C676        C677   1.424       .  A
C677        C678   1.399       .  A
C677        H684   1.076       .  S
C678        S680   1.803       .  S
S679        H682   1.388       .  S
S680        H681   1.407       .  S
C685        C686   1.401       .  A
C685        C690   1.412       .  A
C686        C687   1.392       .  A
C686        H695   1.084       .  S
C687        C688   1.417       .  A
C687        S691   1.806       .  S
C688        C689   1.409       .  A
C689        C690   1.403       .  A
C689        H696   1.081       .  S
C690        S692   1.801       .  S
S691        H694   1.394       .  S
S692        H693   1.407       .  S
C697        C698   1.404       .  A
C697        C702   1.421       .  A
C698        C699   1.392       .  A
C698        H707   1.083       .  S
C699        C700   1.412       .  A
C699        S703   1.804       .  S
C700        C701   1.402       .  A
C701        C702   1.404       .  A
C701        H708   1.084       .  S
C702        S704   1.800       .  S
S703        H706   1.407       .  S
S704        H705   1.383       .  S
C709        C710   1.398       .  A
C709        C714   1.412       .  A
C710        C711   1.397       .  A
C710        H719   1.084       .  S
C711        C712   1.419       .  A
C711        S715   1.804       .  S
C712        C713   1.404       .  A
C713        C714   1.401       .  A
C713        H720   1.082       .  S
C714        S716   1.803       .  S
S715        H718   1.401       .  S
S716        H717   1.406       .  S
C721        C722   1.406       .  A
C721        C726   1.415       .  A
C722        C723   1.397       .  A
C722        H731   1.079       .  S
C723        C724   1.409       .  A
C723        S727   1.803       .  S
C724        C725   1.399       .  A
C725        C726   1.400       .  A
C725        H732   1.084       .  S
C726        S728   1.794       .  S
S727        H730   1.407       .  S
S728        H729   1.406       .  S
C733        C734   1.404       .  A
C733        C738   1.418       .  A
C734        C735   1.390       .  A
C734        H743   1.084       .  S
C735        C736   1.410       .  A
C735        S739   1.804       .  S
C736        C737   1.404       .  A
C737        C738   1.405       .  A
C737        H744   1.084       .  S
C738        S740   1.803       .  S
S739        H742   1.407       .  S
S740        H741   1.395       .  S
C745        C746   1.403       .  A
C745        C750   1.412       .  A
C746        C747   1.397       .  A
C746        H755   1.083       .  S
C747        C748   1.412       .  A
C747        S751   1.805       .  S
C748        C749   1.409       .  A
C749        C750   1.403       .  A
C749        H756   1.082       .  S
C750        S752   1.800       .  S
S751        H754   1.406       .  S
S752        H753   1.406       .  S
C757        C758   1.407       .  A
C757        C762   1.419       .  A
C758        C759   1.398       .  A
C758        H767   1.083       .  S
C759        C760   1.410       .  A
C759        S763   1.803       .  S
C760        C761   1.398       .  A
C761        C762   1.397       .  A
C761        H768   1.084       .  S
C762        S764   1.800       .  S
S763        H766   1.406       .  S
S764        H765   1.393       .  S
C769        C770   1.408       .  A
C769        C774   1.420       .  A
C770        C771   1.395       .  A
C770        H779   1.083       .  S
C771        C772   1.407       .  A
C771        S775   1.803       .  S
C772        C773   1.402       .  A
C773        C774   1.404       .  A
C773        H780   1.084       .  S
C774        S776   1.800       .  S
S775        H778   1.404       .  S
S776        H777   1.394       .  S
