geometry optimzed in LAMMPS
_audit_creation_date              2020-12-01 
_audit_creation_method            'lammps2cif' 
_symmetry_space_group_name_H-M    'P1' 
_symmetry_Int_Tables_number       1 
_symmetry_cell_setting            triclinic 
loop_ 
_symmetry_equiv_pos_as_xyz 
  x,y,z 
_cell_length_a                    37.76548227 
_cell_length_b                    37.80920624597959 
_cell_length_c                    60.7061054101949 
_cell_angle_alpha                 88.98870279828317 
_cell_angle_beta                  90.85705194824939 
_cell_angle_gamma                 126.5631561808496 
loop_ 
_atom_site_label 
_atom_site_type_symbol 
_atom_site_fract_x 
_atom_site_fract_y 
_atom_site_fract_z 
_atom_site_charge 
C1          C  0.43489736  0.43685573  0.00211801     0.80100
N2          N  0.42521636  0.40569710  0.01741806    -0.78300
C3          C  0.38563638  0.36543504  0.01707877     0.82500
N4          N  0.35551595  0.35605555  0.00119489    -0.78200
C5          C  0.36500333  0.38709117  0.98582203     0.82600
N6          N  0.40457376  0.42730192  0.98636786    -0.79900
C7          C  0.77730870  0.74833094  0.66662184     0.80100
N8          N  0.75072910  0.73318180  0.64849218    -0.78300
C9          C  0.71646651  0.73571506  0.64686336     0.82500
N10         N  0.70970423  0.75519372  0.66309392    -0.78200
C11         C  0.73672588  0.77187696  0.68097866     0.82600
N12         N  0.76992291  0.76754969  0.68293637    -0.79900
C13         C  0.77445566  0.10203836  0.66308272     0.80100
N14         N  0.74361475  0.09096254  0.64734886    -0.78300
C15         C  0.70319662  0.05159352  0.64832846     0.82500
N16         N  0.69395657  0.02253654  0.66484854    -0.78200
C17         C  0.72491078  0.03309199  0.68048281     0.82600
N18         N  0.76484347  0.07304846  0.67969111    -0.79900
N19         N  0.73743962  0.83514283  0.72622192    -0.27500
N20         N  0.71410663  0.83853665  0.71103367    -0.35300
C21         C  0.70934960  0.81537406  0.69329167     0.00900
C22         C  0.73099364  0.79662559  0.69721437     0.06900
C23         C  0.74869965  0.80994573  0.71825829    -0.06200
H24         H  0.69312250  0.81411574  0.67815735     0.07600
H25         H  0.76850556  0.80223545  0.72701249     0.08800
Cu26       Cu  0.69502025  0.87953535  0.71295695     0.44200
Cu27       Cu  0.75243886  0.86630627  0.75670555     0.42000
Cu28       Cu  0.74273118  0.95710304  0.75658333     0.43900
N29         N  0.70500554  0.93948352  0.71077684    -0.34800
N30         N  0.72558164  0.96978389  0.72617825    -0.29100
C31         C  0.73391794  0.00757956  0.71823694    -0.05200
C32         C  0.71682390  0.00017642  0.69703071     0.07000
C33         C  0.69876304  0.95667332  0.69289080     0.00800
H34         H  0.75201992  0.03840271  0.72700473     0.08500
H35         H  0.68530582  0.93977646  0.67737345     0.07500
N36         N  0.75159485  0.93123883  0.78503282    -0.36300
N37         N  0.75550070  0.89867187  0.78513462    -0.28500
C38         C  0.75922659  0.88916786  0.80617575    -0.03700
C39         C  0.75733944  0.91683746  0.81997927     0.04900
C40         C  0.75252950  0.94304594  0.80597042     0.03000
H41         H  0.76195451  0.86322428  0.81108415     0.08100
H42         H  0.74919393  0.96839320  0.81065079     0.06900
N43         N  0.75833115  0.98754078  0.93843750    -0.27500
N44         N  0.78257693  0.98676310  0.95411188    -0.35300
C45         C  0.78449179  0.00907100  0.97157861     0.00900
C46         C  0.75974958  0.02421420  0.96702616     0.06900
C47         C  0.74335724  0.00990375  0.94586221    -0.06200
H48         H  0.80132698  0.01252709  0.98687982     0.07600
H49         H  0.72273125  0.01583473  0.93648851     0.08800
Cu50       Cu  0.80763134  0.95092617  0.95303275     0.44200
Cu51       Cu  0.74908973  0.95849664  0.90777626     0.42000
Cu52       Cu  0.77219827  0.87735536  0.90802962     0.43900
N53         N  0.80309143  0.89377977  0.95515800    -0.34800
N54         N  0.78713745  0.86488842  0.93907319    -0.29100
C55         C  0.78075409  0.82789974  0.94682926    -0.05200
C56         C  0.79435506  0.83440440  0.96865854     0.07000
C57         C  0.80820292  0.87647274  0.97338187     0.00800
H58         H  0.76598694  0.79800687  0.93750856     0.08500
H59         H  0.81767074  0.89192967  0.98938529     0.07500
N60         N  0.76256709  0.90201039  0.87939012    -0.36300
N61         N  0.75417555  0.93139093  0.87924351    -0.28500
C62         C  0.75107764  0.94114642  0.85816053    -0.03700
C63         C  0.75770802  0.91673064  0.84438231     0.04900
C64         C  0.76485681  0.89228749  0.85844573     0.03000
H65         H  0.74475319  0.96455360  0.85323114     0.08100
H66         H  0.77170466  0.86943036  0.85381544     0.06900
C67         C  0.08761229  0.71796791  0.99613662     0.80100
N68         N  0.06656995  0.72268065  0.01255852    -0.78300
C69         C  0.06612372  0.75837730  0.01260963     0.82500
N70         N  0.08724345  0.78939218  0.99647541    -0.78200
C71         C  0.10833236  0.78492434  0.98016982     0.82600
N72         N  0.10817037  0.74898543  0.97990155    -0.79900
C73         C  0.73323223  0.73153462  0.00164361     0.80100
N74         N  0.76367704  0.74050700  0.01715364    -0.78300
C75         C  0.80487729  0.77884672  0.01642763     0.82500
N76         N  0.81541826  0.80915149  0.00036509    -0.78200
C77         C  0.78479465  0.80065269  0.98495251     0.82600
N78         N  0.74400982  0.76160831  0.98547202    -0.79900
C79         C  0.77899607  0.79902800  0.32780895     0.80100
N80         N  0.75286284  0.76773486  0.34322054    -0.78300
C81         C  0.74711379  0.72879438  0.34358615     0.82500
N82         N  0.76752993  0.72096600  0.32841985    -0.78200
C83         C  0.79380699  0.75186446  0.31293494     0.82600
N84         N  0.79949112  0.79096155  0.31257642    -0.79900
N85         N  0.85167680  0.74168315  0.26867847    -0.27500
N86         N  0.85080507  0.71626988  0.28423920    -0.35300
C87         C  0.82973013  0.71595131  0.30189301     0.00900
C88         C  0.81705170  0.74284394  0.29749472     0.06900
C89         C  0.83154979  0.75889346  0.27628236    -0.06200
H90         H  0.82547838  0.69869711  0.31718737     0.07600
H91         H  0.82747927  0.78099733  0.26705151     0.08800
Cu92       Cu  0.88300775  0.68748137  0.28266410     0.44200
Cu93       Cu  0.88037835  0.74997256  0.23813657     0.42000
Cu94       Cu  0.96003980  0.72444741  0.23905992     0.43900
N95         N  0.93830001  0.68884833  0.28522331    -0.34800
N96         N  0.96856637  0.70542819  0.26971326    -0.29100
C97         C  0.00436951  0.71007125  0.27795276    -0.05200
C98         C  0.99567427  0.69480419  0.29952905     0.07000
C99         C  0.95353087  0.68163761  0.30357496     0.00800
H100        H  0.03512456  0.72532160  0.26924707     0.08500
H101        H  0.93691598  0.67178104  0.31932552     0.07500
N102        N  0.93728325  0.73589829  0.21052543    -0.36300
N103        N  0.90828865  0.74482216  0.21011903    -0.28500
C104        C  0.89911724  0.74807241  0.18899919    -0.03700
C105        C  0.92354528  0.74097463  0.17553076     0.04900
C106        C  0.94742565  0.73346446  0.18972257     0.03000
H107        H  0.87588342  0.75452015  0.18385627     0.08100
H108        H  0.96978265  0.72580662  0.18530236     0.06900
N109        N  0.00078670  0.75475738  0.05755740    -0.27500
N110        N  0.99678573  0.77765056  0.04233113    -0.35300
C111        C  0.02045126  0.78314762  0.02463843     0.00900
C112        C  0.03995167  0.76231372  0.02863947     0.06900
C113        C  0.02673466  0.74437248  0.04965242    -0.06200
H114        H  0.02172335  0.79948494  0.00952244     0.07600
H115        H  0.03535625  0.72538313  0.05851229     0.08800
Cu116      Cu  0.95527424  0.79613922  0.04414232     0.44200
Cu117      Cu  0.97033633  0.73988517  0.08813820     0.42000
Cu118      Cu  0.88017847  0.75096843  0.08841129     0.43900
N119        N  0.89751971  0.79075833  0.04325788    -0.34800
N120        N  0.86815945  0.77141942  0.05920821    -0.29100
C121        C  0.83146045  0.76682500  0.05265499    -0.05200
C122        C  0.83851777  0.78497834  0.03172375     0.07000
C123        C  0.88071483  0.79976399  0.02626190     0.00800
H124        H  0.80144122  0.75037168  0.06214488     0.08500
H125        H  0.89671598  0.81294211  0.01047844     0.07500
N126        N  0.90698205  0.74313790  0.11644202    -0.36300
N127        N  0.93941584  0.73900934  0.11653061    -0.28500
C128        C  0.94987554  0.73683533  0.13757433    -0.03700
C129        C  0.92286168  0.73993749  0.15128332     0.04900
C130        C  0.89612722  0.74385434  0.13732736     0.03000
H131        H  0.97596454  0.73432139  0.14250439     0.08100
H132        H  0.87114264  0.74781052  0.14196406     0.06900
C133        C  0.09599700  0.75600235  0.33394384     0.80100
N134        N  0.08470468  0.72688693  0.35067413    -0.78300
C135        C  0.04551441  0.68630221  0.35026175     0.82500
N136        N  0.01698897  0.67512423  0.33324513    -0.78200
C137        C  0.02804791  0.70430365  0.31652826     0.82600
N138        N  0.06767100  0.74450236  0.31683927    -0.79900
C139        C  0.70862334  0.06744676  0.99784265     0.80100
N140        N  0.74175339  0.09431066  0.01223846    -0.78300
C141        C  0.77999331  0.09863853  0.01201292     0.82500
N142        N  0.78565839  0.07638186  0.99698706    -0.78200
C143        C  0.75320886  0.04970712  0.98226179     0.82600
N144        N  0.71455172  0.04503485  0.98278063    -0.79900
N145        N  0.64951777  0.67416378  0.59904402    -0.27500
N146        N  0.61909841  0.66541138  0.61331633    -0.35300
C147        C  0.63873330  0.68867699  0.63169380     0.00900
C148        C  0.68377341  0.71288375  0.62909610     0.06900
C149        C  0.68959181  0.70271003  0.60825821    -0.06200
H150        H  0.62144036  0.68522600  0.64656796     0.07600
H151        H  0.72051085  0.71426814  0.60061674     0.08800
Cu152      Cu  0.55294640  0.61465155  0.60987991     0.44200
Cu153      Cu  0.63317525  0.64418277  0.56837518     0.42000
Cu154      Cu  0.52665158  0.53722624  0.56753563     0.43900
N155        N  0.50539648  0.54765540  0.61321817    -0.34800
N156        N  0.49768099  0.51860537  0.59839578    -0.29100
C157        C  0.47058947  0.47787654  0.60718593    -0.05200
C158        C  0.46055966  0.48180197  0.62842353     0.07000
C159        C  0.48298024  0.52638427  0.63165515     0.00800
H160        H  0.45966481  0.44780370  0.59889012     0.08500
H161        H  0.48529939  0.54235321  0.64679059     0.07500
N162        N  0.56174818  0.57135304  0.53934218    -0.36300
N163        N  0.60074467  0.61022512  0.53959855    -0.28500
C164        C  0.61374372  0.62396210  0.51869679    -0.03700
C165        C  0.58131366  0.59229652  0.50466101     0.04900
C166        C  0.54887640  0.55941665  0.51831432     0.03000
H167        H  0.64417227  0.65508550  0.51409043     0.08100
H168        H  0.51791369  0.52925818  0.51337214     0.06900
N169        N  0.67273041  0.65936745  0.38785561    -0.27500
N170        N  0.66223461  0.62968627  0.37280588    -0.35300
C171        C  0.68877322  0.64973438  0.35533094     0.00900
C172        C  0.71692860  0.69428597  0.35943784     0.06900
C173        C  0.70584066  0.69941707  0.38014839    -0.06200
H174        H  0.68577141  0.63345806  0.34018229     0.07600
H175        H  0.72025609  0.72997639  0.38880887     0.08800
Cu176      Cu  0.60742027  0.56492373  0.37473064     0.44200
Cu177      Cu  0.63981537  0.64296400  0.41762699     0.42000
Cu178      Cu  0.52938023  0.53984487  0.41700164     0.43900
N179        N  0.54083109  0.51489891  0.37239030    -0.34800
N180        N  0.51144132  0.50730230  0.38705838    -0.29100
C181        C  0.47076414  0.47670507  0.37903968    -0.05200
C182        C  0.47517187  0.46417775  0.35856612     0.07000
C183        C  0.51992514  0.48894297  0.35490883     0.00800
H184        H  0.44035438  0.46467768  0.38741208     0.08500
H185        H  0.53607452  0.48991388  0.34009299     0.07500
N186        N  0.56203181  0.57464797  0.44550725    -0.36300
N187        N  0.60219878  0.61218316  0.44569765    -0.28500
C188        C  0.61475493  0.62475591  0.46669511    -0.03700
C189        C  0.58097426  0.59359499  0.48038646     0.04900
C190        C  0.54803926  0.56234312  0.46640528     0.03000
H191        H  0.64665949  0.65378133  0.47161797     0.08100
H192        H  0.51667702  0.53226095  0.47106459     0.06900
C193        C  0.07084674  0.39899738  0.66684493     0.80100
N194        N  0.07999311  0.43084308  0.65217234    -0.78300
C195        C  0.11965557  0.47095731  0.65249392     0.82500
N196        N  0.15066656  0.47944050  0.66757580    -0.78200
C197        C  0.14171948  0.44770720  0.68234836     0.82600
N198        N  0.10186665  0.40763297  0.68194871    -0.79900
N199        N  0.33460232  0.42360712  0.72410744    -0.27500
N200        N  0.33198374  0.44784026  0.70913398    -0.35300
C201        C  0.35350007  0.45109636  0.69097165     0.00900
C202        C  0.37004637  0.42731091  0.69429963     0.06900
C203        C  0.35744768  0.41006340  0.71549793    -0.06200
H204        H  0.35506794  0.46783380  0.67595253     0.07600
H205        H  0.36435457  0.38937902  0.72398625     0.08800
Cu206      Cu  0.29406946  0.47046788  0.71142382     0.44200
Cu207      Cu  0.30614745  0.41099736  0.75525965     0.42000
Cu208      Cu  0.21877541  0.42569636  0.75523381     0.43900
N209        N  0.23579889  0.46404282  0.70992061    -0.34800
N210        N  0.20636829  0.44470394  0.72582897    -0.29100
C211        C  0.16902038  0.43837442  0.71894362    -0.05200
C212        C  0.17567691  0.45532177  0.69779780     0.07000
C213        C  0.21834603  0.47134966  0.69255524     0.00800
H214        H  0.13885151  0.42141902  0.72833972     0.08500
H215        H  0.23420814  0.48398665  0.67670096     0.07500
N216        N  0.24373596  0.41612696  0.78330364    -0.36300
N217        N  0.27536572  0.41082972  0.78368649    -0.28500
C218        C  0.28441249  0.40745201  0.80486494    -0.03700
C219        C  0.25717121  0.41086127  0.81827050     0.04900
C220        C  0.23190307  0.41628554  0.80402071     0.03000
H221        H  0.30945770  0.40359541  0.81010399     0.08100
H222        H  0.20718248  0.42082845  0.80834159     0.06900
N223        N  0.17408361  0.40373045  0.93377475    -0.27500
N224        N  0.17578145  0.38097800  0.94999116    -0.35300
C225        C  0.15289416  0.37914046  0.96716122     0.00900
C226        C  0.13620276  0.40219732  0.96176556     0.06900
C227        C  0.15033726  0.41765051  0.94045249    -0.06200
H228        H  0.15040336  0.36386713  0.98288433     0.07600
H229        H  0.14402298  0.43749693  0.93062131     0.08800
Cu230      Cu  0.21417222  0.35876344  0.95025372     0.44200
Cu231      Cu  0.20526603  0.41382585  0.90388056     0.42000
Cu232      Cu  0.29246062  0.39858308  0.90713974     0.43900
N233        N  0.27287698  0.36670561  0.95404829    -0.34800
N234        N  0.30336021  0.38426632  0.93860355    -0.29100
C235        C  0.34045848  0.39219992  0.94724437    -0.05200
C236        C  0.33240043  0.37804337  0.96901102     0.07000
C237        C  0.28928420  0.36209719  0.97277245     0.00800
H238        H  0.37129880  0.40811781  0.93852423     0.08500
H239        H  0.27222987  0.35123493  0.98840484     0.07500
N240        N  0.26858443  0.40644710  0.87783804    -0.36300
N241        N  0.23716926  0.41203645  0.87670451    -0.28500
C242        C  0.22866937  0.41473334  0.85540181    -0.03700
C243        C  0.25595206  0.41064241  0.84251748     0.04900
C244        C  0.28084545  0.40547230  0.85727069     0.03000
H245        H  0.20399018  0.41882337  0.84973819     0.08100
H246        H  0.30565955  0.40081648  0.85338497     0.06900
C247        C  0.41055213  0.37765822  0.65995989     0.80100
N248        N  0.39066641  0.38345321  0.67664567    -0.78300
C249        C  0.39364897  0.42111279  0.67758501     0.82500
N250        N  0.41615945  0.45260228  0.66177768    -0.78200
C251        C  0.43582453  0.44706295  0.64514525     0.82600
N252        N  0.43313471  0.40975507  0.64434510    -0.79900
N253        N  0.42127456  0.32165136  0.27085998    -0.27500
N254        N  0.44167256  0.31827004  0.28774426    -0.35300
C255        C  0.44348797  0.34186769  0.30456609     0.00900
C256        C  0.42263864  0.36051187  0.29822898     0.06900
C257        C  0.40870354  0.34693833  0.27674956    -0.06200
H258        H  0.45741043  0.34382201  0.32061388     0.07600
H259        H  0.39121281  0.35514475  0.26616044     0.08800
Cu260      Cu  0.46161503  0.27763333  0.28867025     0.44200
Cu261      Cu  0.41312231  0.29173210  0.24079529     0.42000
Cu262      Cu  0.43133924  0.20691336  0.24244013     0.43900
N263        N  0.45720580  0.22028532  0.29040001    -0.34800
N264        N  0.44351790  0.19283906  0.27375201    -0.29100
C265        C  0.43757308  0.15577141  0.28097369    -0.05200
C266        C  0.44909662  0.16064515  0.30306405     0.07000
C267        C  0.46124770  0.20185665  0.30850884     0.00800
H268        H  0.42474418  0.12695672  0.27103570     0.08500
H269        H  0.46924699  0.21604707  0.32479852     0.07500
N270        N  0.42406312  0.23236869  0.21344543    -0.36300
N271        N  0.41726943  0.26291780  0.21292206    -0.28500
C272        C  0.41502866  0.27278154  0.19178198    -0.03700
C273        C  0.42067745  0.24732400  0.17832842     0.04900
C274        C  0.42630948  0.22206576  0.19262162     0.03000
H275        H  0.41007744  0.29707969  0.18661107     0.08100
H276        H  0.43195069  0.19819597  0.18824360     0.06900
N277        N  0.41263371  0.17476880  0.05945134    -0.27500
N278        N  0.38986494  0.17809445  0.04387075    -0.35300
C279        C  0.38757848  0.15665407  0.02594615     0.00900
C280        C  0.41026698  0.13917919  0.03017834     0.06900
C281        C  0.42598542  0.15131045  0.05157464    -0.06200
H282        H  0.37171253  0.15517842  0.01063010     0.07600
H283        H  0.44530098  0.14346735  0.06073932     0.08800
Cu284      Cu  0.36654792  0.21529398  0.04560660     0.44200
Cu285      Cu  0.42320550  0.20245008  0.09051095     0.42000
Cu286      Cu  0.40361137  0.28635272  0.09110614     0.43900
N287        N  0.37021573  0.27186558  0.04466841    -0.34800
N288        N  0.38671109  0.30001878  0.06108293    -0.29100
C289        C  0.39211434  0.33700617  0.05424558    -0.05200
C290        C  0.37740906  0.33124148  0.03264261     0.07000
C291        C  0.36379285  0.28960161  0.02710992     0.00800
H292        H  0.40703089  0.36642434  0.06398750     0.08500
H293        H  0.35358256  0.27479650  0.01096225     0.07500
N294        N  0.41452242  0.26163753  0.11916881    -0.36300
N295        N  0.42172100  0.23138488  0.11914452    -0.28500
C296        C  0.42575498  0.22202354  0.14016128    -0.03700
C297        C  0.42079489  0.24755563  0.15400115     0.04900
C298        C  0.41379681  0.27223778  0.14010226     0.03000
H299        H  0.43107263  0.19783232  0.14499897     0.08100
H300        H  0.40780910  0.29568561  0.14483321     0.06900
C301        C  0.38885089  0.05519359  0.33395968     0.80100
N302        N  0.42020784  0.06227541  0.34837581    -0.78300
C303        C  0.46138952  0.10072743  0.34789969     0.82500
N304        N  0.47121671  0.13266974  0.33299222    -0.78200
C305        C  0.43979365  0.12586083  0.31858430     0.82600
N306        N  0.39882640  0.08702038  0.31902559    -0.79900
C307        C  0.45563180  0.08929035  0.00058151     0.80100
N308        N  0.42685756  0.07024382  0.98339887    -0.78300
C309        C  0.39258745  0.07278928  0.98178526     0.82500
N310        N  0.38731472  0.09452800  0.99731549    -0.78200
C311        C  0.41609902  0.11406343  0.01439548     0.82600
N312        N  0.45026363  0.11122173  0.01614202    -0.79900
C313        C  0.37203360  0.40722437  0.32593428     0.80100
N314        N  0.37869233  0.38500458  0.31114061    -0.78300
C315        C  0.41612564  0.38740338  0.31237243     0.82500
N316        N  0.44686073  0.41261339  0.32804794    -0.78200
C317        C  0.44045789  0.43498553  0.34264408     0.82600
N318        N  0.40285260  0.43188495  0.34168932    -0.79900
N319        N  0.85038442  0.16872520  0.05706697    -0.27500
N320        N  0.88024232  0.17640034  0.04269976    -0.35300
C321        C  0.85979189  0.15130248  0.02486208     0.00900
C322        C  0.81488273  0.12713804  0.02804226     0.06900
C323        C  0.80999760  0.13901906  0.04857743    -0.06200
H324        H  0.87636480  0.15266271  0.01013181     0.07600
H325        H  0.77943490  0.12740549  0.05662598     0.08800
Cu326      Cu  0.94671309  0.22645979  0.04602321     0.44200
Cu327      Cu  0.86673848  0.20064822  0.08706239     0.42000
Cu328      Cu  0.97118169  0.30824862  0.08591264     0.43900
N329        N  0.99754497  0.29270047  0.04290106    -0.34800
N330        N  0.00452287  0.32318681  0.05652509    -0.29100
C331        C  0.03433504  0.36317220  0.04756945    -0.05200
C332        C  0.04706942  0.35730127  0.02755661     0.07000
C333        C  0.02323957  0.31233140  0.02514816     0.00800
H334        H  0.04494906  0.39404953  0.05479060     0.08500
H335        H  0.02188859  0.29509678  0.01074433     0.07500
N336        N  0.93537512  0.27830110  0.11437271    -0.36300
N337        N  0.89727613  0.23866666  0.11493172    -0.28500
C338        C  0.88408072  0.22764843  0.13599877    -0.03700
C339        C  0.91542979  0.26208287  0.14925094     0.04900
C340        C  0.94741670  0.29364075  0.13500032     0.03000
H341        H  0.85437103  0.19654631  0.14127254     0.08100
H342        H  0.97782643  0.32492982  0.13930751     0.06900
N343        N  0.83845447  0.19325901  0.26843003    -0.27500
N344        N  0.84540789  0.22149657  0.28356334    -0.35300
C345        C  0.82331807  0.19925479  0.30191080     0.00000
C346        C  0.80194628  0.15493314  0.29824635     0.06900
C347        C  0.81236597  0.15216969  0.27691155    -0.06200
H348        H  0.82510692  0.21441860  0.31724662     0.07600
H349        H  0.80222585  0.12265291  0.26829800     0.08800
Cu350      Cu  0.89127866  0.28889127  0.28029885     0.44200
Cu351      Cu  0.86659085  0.21330466  0.23746027     0.42000
Cu352      Cu  0.96770178  0.32478191  0.23545555     0.43900
N353        N  0.95662823  0.34284834  0.28173838    -0.34800
N354        N  0.98579836  0.35426840  0.26613710    -0.29100
C355        C  0.02653604  0.38451872  0.27423409    -0.05200
C356        C  0.02236171  0.39293288  0.29577690     0.07000
C357        C  0.97768858  0.36605460  0.29991818     0.00800
H358        H  0.05685150  0.39814785  0.26538072     0.08500
H359        H  0.96194580  0.36072071  0.31562651     0.07500
N360        N  0.93562625  0.28674222  0.20776139    -0.36300
N361        N  0.89876647  0.24614182  0.20852782    -0.28500
C362        C  0.88593049  0.23111082  0.18787705    -0.03700
C363        C  0.91617419  0.26380443  0.17344123     0.04900
C364        C  0.94726093  0.29858339  0.18658415     0.03000
H365        H  0.85659542  0.19888369  0.18372482     0.08100
H366        H  0.97599708  0.33031973  0.18118813     0.06900
C367        C  0.09197085  0.45401600  0.99084314     0.80100
N368        N  0.11113588  0.44556487  0.97493916    -0.78300
C369        C  0.11168436  0.40995633  0.97700243     0.82500
N370        N  0.09177004  0.38219253  0.99446274    -0.78200
C371        C  0.07250379  0.39014935  0.01019587     0.82600
N372        N  0.07338519  0.42640408  0.00855625    -0.79900
C373        C  0.76301670  0.05552806  0.33188733     0.80100
N374        N  0.73900544  0.05798258  0.34753895    -0.78300
C375        C  0.73418455  0.09090086  0.34655365     0.82500
N376        N  0.75423022  0.12173659  0.33028380    -0.78200
C377        C  0.77828643  0.11966360  0.31478131     0.82600
N378        N  0.78214887  0.08624270  0.31542810    -0.79900
N379        N  0.66464691  0.08460698  0.39010122    -0.27500
N380        N  0.65796584  0.10390810  0.37389600    -0.35300
C381        C  0.68214925  0.10927617  0.35646080     0.00900
C382        C  0.70488729  0.09215701  0.36165895     0.06900
C383        C  0.69297765  0.07650588  0.38311991    -0.06200
H384        H  0.68205274  0.12339811  0.34081317     0.07600
H385        H  0.70432635  0.06089884  0.39295479     0.08800
Cu386      Cu  0.61336006  0.11877630  0.37439843     0.44200
Cu387      Cu  0.63464234  0.07150856  0.42076757     0.42000
Cu388      Cu  0.54047261  0.07650534  0.41969684     0.43900
N389        N  0.55503328  0.11245089  0.37367080    -0.34800
N390        N  0.52657818  0.09422505  0.39005297    -0.29100
C391        C  0.48952554  0.08922425  0.38377813    -0.05200
C392        C  0.49544245  0.10602006  0.36259365     0.07000
C393        C  0.53730775  0.12040334  0.35667682     0.00800
H394        H  0.46019651  0.07385293  0.39373889     0.08500
H395        H  0.55261095  0.13299144  0.34070505     0.07500
N396        N  0.56750626  0.07029891  0.44822216    -0.36300
N397        N  0.60147774  0.06852252  0.44877732    -0.28500
C398        C  0.61149535  0.06673505  0.46997168    -0.03700
C399        C  0.58257455  0.06758230  0.48331809     0.04900
C400        C  0.55517083  0.06978642  0.46896460     0.03000
H401        H  0.63851302  0.06595384  0.47525999     0.08100
H402        H  0.52874508  0.07182636  0.47324487     0.06900
N403        N  0.50685547  0.06780030  0.59984832    -0.27500
N404        N  0.51063124  0.04770272  0.61676217    -0.35300
C405        C  0.48776722  0.04653303  0.63380499     0.00900
C406        C  0.46908636  0.06737044  0.62754939     0.06900
C407        C  0.48191441  0.08069072  0.60590551    -0.06200
H408        H  0.48635985  0.03304986  0.64992077     0.07600
H409        H  0.47362563  0.09815582  0.59535824     0.08800
Cu410      Cu  0.55089511  0.02740292  0.61758700     0.44200
Cu411      Cu  0.53608718  0.07562412  0.56959798     0.42000
Cu412      Cu  0.62341579  0.06101149  0.57195730     0.43900
N413        N  0.60884814  0.03304206  0.61957567    -0.34800
N414        N  0.63711544  0.04816453  0.60314401    -0.29100
C415        C  0.67441826  0.05479750  0.61053291    -0.05200
C416        C  0.66885168  0.04227984  0.63252668     0.07000
C417        C  0.62693821  0.02871627  0.63771007     0.00800
H418        H  0.70379393  0.06874923  0.60079192     0.08500
H419        H  0.61201304  0.01965712  0.65388176     0.07500
N420        N  0.59753483  0.06691569  0.54282106    -0.36300
N421        N  0.56582447  0.07208763  0.54195889    -0.28500
C422        C  0.55577242  0.07321108  0.52071661    -0.03700
C423        C  0.58243972  0.06861461  0.50759104     0.04900
C424        C  0.60853311  0.06476454  0.52215165     0.03000
H425        H  0.53060592  0.07674226  0.51526197     0.08100
H426        H  0.63329336  0.06014603  0.51806699     0.06900
N427        N  0.08708810  0.65595902  0.60702039    -0.27500
N428        N  0.11108843  0.65524162  0.62287588    -0.35300
C429        C  0.11312712  0.67807493  0.64010658     0.00900
C430        C  0.08884408  0.69357638  0.63516232     0.06900
C431        C  0.07249182  0.67886113  0.61406612    -0.06200
H432        H  0.12975562  0.68167996  0.65550680     0.07600
H433        H  0.05202182  0.68473994  0.60449989     0.08800
Cu434      Cu  0.13608376  0.61930650  0.62251284     0.44200
Cu435      Cu  0.07703681  0.62610984  0.57662321     0.42000
Cu436      Cu  0.10071706  0.54589128  0.57778761     0.43900
N437        N  0.13377883  0.56339976  0.62433785    -0.34800
N438        N  0.11813145  0.53484738  0.60812475    -0.29100
C439        C  0.11357172  0.49854084  0.61529354    -0.05200
C440        C  0.12786955  0.50500192  0.63693010     0.07000
C441        C  0.14041894  0.54641856  0.64218797     0.00800
H442        H  0.09939489  0.46902080  0.60572467     0.08500
H443        H  0.15004375  0.56150331  0.65827733     0.07500
N444        N  0.08943288  0.56816999  0.54916170    -0.36300
N445        N  0.08080454  0.59733947  0.54852977    -0.28500
C446        C  0.07688504  0.60560740  0.52731239    -0.03700
C447        C  0.08333297  0.58039440  0.51407903     0.04900
C448        C  0.09114739  0.55707419  0.52849524     0.03000
H449        H  0.07038043  0.62867472  0.52193317     0.08100
H450        H  0.09823332  0.53419670  0.52431910     0.06900
N451        N  0.06998825  0.50132323  0.39601481    -0.27500
N452        N  0.04357934  0.50189930  0.38170277    -0.35300
C453        C  0.04179338  0.48241993  0.36311092     0.00900
C454        C  0.06854062  0.46901400  0.36546857     0.06900
C455        C  0.08615928  0.48152720  0.38657605    -0.06200
H456        H  0.02393269  0.48020750  0.34844549     0.07600
H457        H  0.10922666  0.47707981  0.39434660     0.08800
Cu458      Cu  0.01638632  0.53527677  0.38511892     0.44200
Cu459      Cu  0.08233349  0.52937610  0.42716082     0.42000
Cu460      Cu  0.06602030  0.61549118  0.42651335     0.43900
N461        N  0.02441028  0.59398158  0.38190714    -0.34800
N462        N  0.04581216  0.62533846  0.39671369    -0.29100
C463        C  0.05378409  0.66255760  0.38830799    -0.05200
C464        C  0.03587361  0.65383017  0.36730321     0.07000
C465        C  0.01743885  0.61002271  0.36378879     0.00800
H466        H  0.07291058  0.69405438  0.39647062     0.08500
H467        H  0.00386560  0.59235393  0.34846709     0.07500
N468        N  0.07672302  0.59183311  0.45481831    -0.36300
N469        N  0.08267006  0.56068376  0.45533351    -0.28500
C470        C  0.08669891  0.55225121  0.47651786    -0.03700
C471        C  0.08294621  0.57929392  0.48982796     0.04900
C472        C  0.07670927  0.60390302  0.47550252     0.03000
H473        H  0.09108710  0.52761874  0.48183749     0.08100
H474        H  0.07169526  0.62827668  0.47976023     0.06900
C475        C  0.03753993  0.73734696  0.66495875     0.80100
N476        N  0.06873979  0.76182612  0.68060817    -0.78300
C477        C  0.10662050  0.76537424  0.68095362     0.82500
N478        N  0.11299581  0.74386458  0.66578546    -0.78200
C479        C  0.08197396  0.71903410  0.65016716     0.82600
N480        N  0.04422219  0.71600976  0.64961723    -0.79900
N481        N  0.17066191  0.85753658  0.93391028    -0.27500
N482        N  0.17865200  0.88623869  0.94900528    -0.35300
C483        C  0.15581554  0.86449572  0.96727125     0.00900
C484        C  0.13283038  0.81996075  0.96360054     0.06900
C485        C  0.14303329  0.81656199  0.94232340    -0.06200
H486        H  0.15832823  0.88003397  0.98260458     0.07600
H487        H  0.13190541  0.78668860  0.93375576     0.08800
Cu488      Cu  0.22722711  0.95308578  0.94605920     0.44200
Cu489      Cu  0.20003985  0.87704923  0.90325739     0.42000
Cu490      Cu  0.30649870  0.98397899  0.90336479     0.43900
N491        N  0.29375548  0.00281316  0.94916645    -0.34800
N492        N  0.32360747  0.01198412  0.93440541    -0.29100
C493        C  0.36403607  0.03983991  0.94336279    -0.05200
C494        C  0.35900199  0.04901708  0.96457058     0.07000
C495        C  0.31415069  0.02515844  0.96765447     0.00800
H496        H  0.39463430  0.05183647  0.93521084     0.08500
H497        H  0.29748928  0.02155929  0.98280101     0.07500
N498        N  0.27302865  0.95011995  0.87488077    -0.36300
N499        N  0.23411427  0.91118274  0.87496566    -0.28500
C500        C  0.22041755  0.89887788  0.85409142    -0.03700
C501        C  0.25222350  0.93158367  0.84018520     0.04900
C502        C  0.28517917  0.96358292  0.85388107     0.03000
H503        H  0.18937507  0.86851771  0.84944056     0.08100
H504        H  0.31543973  0.99459993  0.84899553     0.06900
N505        N  0.33632907  0.99072407  0.72203327    -0.27500
N506        N  0.32646802  0.95922426  0.70832269    -0.35300
C507        C  0.35025291  0.97747069  0.68988373     0.00900
C508        C  0.37582106  0.02262231  0.69193036     0.06900
C509        C  0.36610681  0.03005934  0.71243982    -0.06200
H510        H  0.34655243  0.95927387  0.67538235     0.07600
H511        H  0.37890655  0.06158765  0.71963556     0.08800
Cu512      Cu  0.27449993  0.89371153  0.71266315     0.44200
Cu513      Cu  0.30651172  0.97764998  0.75245056     0.42000
Cu514      Cu  0.19726263  0.87352307  0.75385392     0.43900
N515        N  0.20770544  0.84411896  0.71052262    -0.34800
N516        N  0.17862662  0.83840338  0.72483149    -0.29100
C517        C  0.13775856  0.80824181  0.71693444    -0.05200
C518        C  0.14162210  0.79407791  0.69685772     0.07000
C519        C  0.18633228  0.81736934  0.69334146     0.00800
H520        H  0.10760685  0.79794405  0.72502054     0.08500
H521        H  0.20218193  0.81708367  0.67871295     0.07500
N522        N  0.23074608  0.91073177  0.78151328    -0.36300
N523        N  0.27058815  0.94863643  0.78106258    -0.28500
C524        C  0.28392354  0.96261653  0.80182869    -0.03700
C525        C  0.25091281  0.93194243  0.81597982     0.04900
C526        C  0.21768849  0.89956654  0.80255925     0.03000
H527        H  0.31583439  0.99217613  0.80628154     0.08100
H528        H  0.18684759  0.86941230  0.80769536     0.06900
C529        C  0.41980995  0.11695909  0.65361309     0.80100
N530        N  0.40003185  0.08965379  0.67133900    -0.78300
C531        C  0.40095114  0.05459737  0.67418879     0.82500
N532        N  0.42244203  0.04724989  0.65950352    -0.78200
C533        C  0.44309287  0.07463980  0.64196199     0.82600
N534        N  0.44140600  0.10937424  0.63883675    -0.79900
C535        C  0.11920039  0.42958652  0.33086443     0.80100
N536        N  0.09177759  0.41503312  0.31304742    -0.78300
C537        C  0.05655984  0.41610339  0.31279133     0.82500
N538        N  0.04935322  0.43281496  0.33017474    -0.78200
C539        C  0.07694678  0.44874328  0.34780022     0.82600
N540        N  0.11162792  0.44648350  0.34836115    -0.79900
C541        C  0.15525454  0.42431470  0.33142649     0.01200
C542        C  0.19845951  0.45924593  0.33810722     0.04000
C543        C  0.23248127  0.45407343  0.33782749    -0.12100
C544        C  0.22419806  0.41497750  0.32985159     0.23300
C545        C  0.18137056  0.38023242  0.32311530    -0.12600
C546        C  0.14677721  0.38428924  0.32446211     0.04700
C547        C  0.26070065  0.41065772  0.32812142     0.27100
C548        C  0.28992833  0.43003869  0.31014923    -0.13300
C549        C  0.32557372  0.42750636  0.30891216     0.05200
C550        C  0.33158429  0.40483512  0.32541605    -0.09300
C551        C  0.30136816  0.38399653  0.34292069     0.06000
C552        C  0.26614059  0.38709586  0.34435132    -0.13700
Br553      Br  0.17043847  0.32718924  0.31163656    -0.05700
Br554      Br  0.21239990  0.51544390  0.34617344    -0.00100
Br555      Br  0.36764755  0.45728574  0.28534205     0.00400
Br556      Br  0.22576672  0.35981813  0.36875572    -0.04100
Br557      Br  0.08752925  0.33353198  0.31773860     0.00500
Br558      Br  0.29080487  0.50063528  0.34822690    -0.03400
Br559      Br  0.28123268  0.46048263  0.28738624    -0.04200
Br560      Br  0.30832668  0.35105561  0.36492517    -0.00200
C561        C  0.40790283  0.33687101  0.65838432     0.01200
C562        C  0.41559422  0.31935735  0.67709634     0.04000
C563        C  0.41617579  0.28263754  0.67496562    -0.12100
C564        C  0.41073545  0.26414378  0.65412549     0.23300
C565        C  0.40299581  0.28129788  0.63549191    -0.12600
C566        C  0.40034891  0.31666794  0.63764758     0.04700
C567        C  0.41295503  0.22642303  0.65188906     0.27100
C568        C  0.45407946  0.23394144  0.64988782    -0.13300
C569        C  0.45647891  0.19815829  0.64956866     0.05200
C570        C  0.41754449  0.15459385  0.65087310    -0.09300
C571        C  0.37620601  0.14720461  0.65157752     0.06000
C572        C  0.37399116  0.18302208  0.65231775    -0.13700
Br573      Br  0.39688014  0.25657146  0.60689650    -0.05700
Br574      Br  0.42827414  0.34674536  0.70553928    -0.00100
Br575      Br  0.51339917  0.20928786  0.64890357     0.00400
Br576      Br  0.31762986  0.17284901  0.65444679    -0.04100
Br577      Br  0.38385546  0.33526833  0.61211946     0.00500
Br578      Br  0.42513637  0.25771865  0.70055851    -0.03400
Br579      Br  0.50714331  0.29353213  0.64809990    -0.04200
Br580      Br  0.32228446  0.08796259  0.65096988    -0.00200
C581        C  0.49191253  0.08514646  0.00239434     0.01200
C582        C  0.48311935  0.04488461  0.00930688     0.04000
C583        C  0.51676845  0.03931010  0.00896267    -0.12100
C584        C  0.55981361  0.07470650  0.00264641     0.23300
C585        C  0.56897209  0.11565924  0.99672204    -0.12600
C586        C  0.53478605  0.12046979  0.99601768     0.04700
C587        C  0.59521706  0.06867974  0.00153703     0.27100
C588        C  0.61632477  0.06904589  0.02089248    -0.13300
C589        C  0.65081765  0.06478822  0.01971840     0.05200
C590        C  0.66687272  0.06347754  0.99894826    -0.09300
C591        C  0.64449977  0.06177199  0.97954951     0.06000
C592        C  0.60819197  0.06329212  0.98099296    -0.13700
Br593      Br  0.62836535  0.16506398  0.98947804    -0.05700
Br594      Br  0.42490871  0.99754649  0.01936592    -0.00100
Br595      Br  0.67364567  0.05816356  0.04697692     0.00400
Br596      Br  0.57617469  0.05868319  0.95474139    -0.04100
Br597      Br  0.54596939  0.17453694  0.98518514     0.00500
Br598      Br  0.50365092  0.98285433  0.01646273    -0.03400
Br599      Br  0.59860552  0.07666557  0.04905734    -0.04200
Br600      Br  0.66418885  0.06012568  0.95065958    -0.00200
C601        C  0.34468562  0.01245707  0.33413733     0.01200
C602        C  0.32792219  0.98664491  0.31493563     0.04000
C603        C  0.28670178  0.94512277  0.31539609    -0.12100
C604        C  0.26252904  0.92880632  0.33512029     0.23300
C605        C  0.27917264  0.95440402  0.35431072    -0.12600
C606        C  0.31988613  0.99642746  0.35376010     0.04700
C607        C  0.21969368  0.88451786  0.33561126     0.27100
C608        C  0.18007332  0.88013798  0.33345559    -0.13300
C609        C  0.13948065  0.83804732  0.33324108     0.05200
C610        C  0.13851067  0.80016416  0.33454684    -0.09300
C611        C  0.17826842  0.80463241  0.33659164     0.06000
C612        C  0.21871217  0.84676650  0.33757414    -0.13700
Br613      Br  0.24631697  0.93135786  0.38140194    -0.05700
Br614      Br  0.36231148  0.00665705  0.28826495    -0.00100
Br615      Br  0.08527617  0.83259093  0.33210181     0.00400
Br616      Br  0.27297495  0.85302877  0.34164283    -0.04100
Br617      Br  0.34062634  0.03260580  0.37970445     0.00500
Br618      Br  0.26333894  0.91005094  0.28907328    -0.03400
Br619      Br  0.18163088  0.93198146  0.33070015    -0.04200
Br620      Br  0.17778691  0.75326603  0.33665446    -0.00200
C621        C  0.78373488  0.84090874  0.32763987     0.01200
C622        C  0.77590376  0.85634874  0.30813602     0.04000
C623        C  0.77574852  0.89348633  0.30875501    -0.12100
C624        C  0.78185082  0.91442564  0.32889377     0.23300
C625        C  0.79078841  0.89989232  0.34822720    -0.12600
C626        C  0.79251365  0.86377086  0.34756613     0.04700
C627        C  0.77717370  0.95067265  0.32993483     0.27100
C628        C  0.81466484  0.99482307  0.32880155    -0.13300
C629        C  0.81020760  0.02911756  0.33029060     0.05200
C630        C  0.76791633  0.01938218  0.33226179    -0.09300
C631        C  0.73033065  0.97495475  0.33323233     0.06000
C632        C  0.73506866  0.94078302  0.33225211    -0.13700
Br633      Br  0.79947618  0.92897403  0.37575646    -0.05700
Br634      Br  0.76170118  0.82499047  0.28082083    -0.00100
Br635      Br  0.86257154  0.08933836  0.33058104     0.00400
Br636      Br  0.68377630  0.88008114  0.33362854    -0.04100
Br637      Br  0.80815001  0.84667979  0.37402660     0.00500
Br638      Br  0.76607763  0.91535376  0.28212953    -0.03400
Br639      Br  0.87202780  0.00799933  0.32477871    -0.04200
Br640      Br  0.67191714  0.96032225  0.33450613    -0.00200
C641        C  0.08744749  0.67892003  0.99545586     0.01200
C642        C  0.11064279  0.67267648  0.01151398     0.04000
C643        C  0.11142808  0.63598355  0.01038297    -0.12100
C644        C  0.08994901  0.60609087  0.99287469     0.23300
C645        C  0.06718504  0.61265948  0.97669685    -0.12600
C646        C  0.06550073  0.64870279  0.97812763     0.04700
C647        C  0.09040630  0.56717946  0.99163552     0.27100
C648        C  0.12720805  0.57143840  0.98303033    -0.13300
C649        C  0.12800751  0.53464808  0.98241421     0.05200
C650        C  0.09073053  0.49266075  0.98934217    -0.09300
C651        C  0.05262324  0.48825592  0.99643473     0.06000
C652        C  0.05331554  0.52563460  0.99848587    -0.13700
Br653      Br  0.03852818  0.57224737  0.95249416    -0.05700
Br654      Br  0.14301134  0.71549528  0.03444103    -0.00100
Br655      Br  0.18140833  0.54336547  0.97312508     0.00400
Br656      Br  0.00358293  0.52025133  0.01107889    -0.04100
Br657      Br  0.03186328  0.65588268  0.95671788     0.00500
Br658      Br  0.14173386  0.62644377  0.03281286    -0.03400
Br659      Br  0.17659092  0.62808731  0.97216893    -0.04200
Br660      Br  0.99775623  0.43094559  0.00186903    -0.00200
C661        C  0.02772538  0.35503778  0.66598422     0.01200
C662        C  0.01143456  0.33273918  0.64569596     0.04000
C663        C  0.96981930  0.29168357  0.64467653    -0.12100
C664        C  0.94478757  0.27206034  0.66394034     0.23300
C665        C  0.96112431  0.29376106  0.68424522    -0.12600
C666        C  0.00228581  0.33534997  0.68527880     0.04700
C667        C  0.90119322  0.22847642  0.66286446     0.27100
C668        C  0.86254541  0.22589802  0.66079156    -0.13300
C669        C  0.82102410  0.18458898  0.66070977     0.05200
C670        C  0.81807462  0.14554555  0.66230192    -0.09300
C671        C  0.85705702  0.14830655  0.66345807     0.06000
C672        C  0.89846040  0.18969626  0.66397402    -0.13700
Br673      Br  0.92664369  0.26632116  0.71060674    -0.05700
Br674      Br  0.04674130  0.35679102  0.61932765    -0.00100
Br675      Br  0.76846754  0.18214052  0.65951266     0.00400
Br676      Br  0.95173085  0.19358926  0.66615541    -0.04100
Br677      Br  0.02224060  0.36591731  0.71301928     0.00500
Br678      Br  0.94669309  0.26206690  0.61685539    -0.03400
Br679      Br  0.86684443  0.27929212  0.65809338    -0.04200
Br680      Br  0.85420393  0.09559907  0.66311692    -0.00200
C681        C  0.99664834  0.73413420  0.66495395     0.01200
C682        C  0.98760616  0.75285630  0.64753015     0.04000
C683        C  0.95043540  0.75292047  0.64848704    -0.12100
C684        C  0.92228302  0.73437166  0.66686181     0.23300
C685        C  0.93087347  0.71501330  0.68410670    -0.12600
C686        C  0.96810267  0.71505631  0.68320964     0.04700
C687        C  0.88438769  0.73648232  0.66825555     0.27100
C688        C  0.89016473  0.77334104  0.67764869    -0.13300
C689        C  0.85533894  0.77729719  0.67746380     0.05200
C690        C  0.81370576  0.74340806  0.66836903    -0.09300
C691        C  0.80761084  0.70514237  0.66009256     0.06000
C692        C  0.84312158  0.70231779  0.65964755    -0.13700
Br693      Br  0.89186217  0.68911620  0.70907134    -0.05700
Br694      Br  0.02768202  0.78107026  0.62306294    -0.00100
Br695      Br  0.86693405  0.83090938  0.68854299     0.00400
Br696      Br  0.83581393  0.65181435  0.64694871    -0.04100
Br697      Br  0.97985686  0.68872532  0.70698037     0.00500
Br698      Br  0.93844083  0.77941415  0.62493195    -0.03400
Br699      Br  0.94665735  0.81891916  0.69035474    -0.04200
Br700      Br  0.75045071  0.65478422  0.65029465    -0.00200
C701        C  0.47859176  0.48041848  0.00217660     0.01200
C702        C  0.50241207  0.49871172  0.98229486     0.04000
C703        C  0.54331785  0.54051154  0.98222701    -0.12100
C704        C  0.56157646  0.56346520  0.00205371     0.23300
C705        C  0.53866438  0.54506061  0.02196607    -0.12600
C706        C  0.49695287  0.50397853  0.02204405     0.04700
C707        C  0.60550364  0.60662186  0.00202602     0.27100
C708        C  0.64372068  0.60828483  0.00287978    -0.13300
C709        C  0.68553949  0.64914485  0.00270105     0.05200
C710        C  0.68923912  0.68862267  0.00194848    -0.09300
C711        C  0.65077786  0.68680791  0.00139777     0.06000
C712        C  0.60900070  0.64582106  0.00114813    -0.13700
Br713      Br  0.56495097  0.57639978  0.04914645    -0.05700
Br714      Br  0.48126515  0.46579452  0.95522195    -0.00100
Br715      Br  0.73744834  0.65041188  0.00248158     0.00400
Br716      Br  0.55630414  0.64302103  0.99945688    -0.04100
Br717      Br  0.46477823  0.48162151  0.04939004     0.00500
Br718      Br  0.57489145  0.56657405  0.95497791    -0.03400
Br719      Br  0.63846937  0.55425797  0.00407643    -0.04200
Br720      Br  0.65490112  0.74017801  0.00228013    -0.00200
loop_ 
_geom_bond_atom_site_label_1 
_geom_bond_atom_site_label_2 
_geom_bond_distance 
_geom_bond_site_symmetry_2 
_ccdc_geom_bond_type 
C1            N2   1.357       .  A
C1            N6   1.357   1_554  A
C1          C701   1.482       .  S
N2            C3   1.357       .  A
C3            N4   1.359       .  A
C3          C290   1.466       .  S
N4            C5   1.359   1_554  A
C5            N6   1.356       .  A
C5          C236   1.465       .  S
C7            N8   1.361       .  A
C7           N12   1.364       .  A
C7          C690   1.495       .  S
N8            C9   1.355       .  A
C9           N10   1.355       .  A
C9          C148   1.468       .  S
N10          C11   1.357       .  A
C11          N12   1.361       .  A
C11          C22   1.474       .  S
C13          N14   1.358       .  A
C13          N18   1.359       .  A
C13         C670   1.481       .  S
N14          C15   1.357       .  A
C15          N16   1.360       .  A
C15         C416   1.469       .  S
N16          C17   1.360       .  A
C17          N18   1.358       .  A
C17          C32   1.471       .  S
N19          C23   1.352       .  A
N19          N20   1.323       .  A
N19         Cu27   2.094       .  S
N20          C21   1.341       .  A
N20         Cu26   2.068       .  S
C21          C22   1.381       .  A
C21          H24   1.083       .  S
C22          C23   1.389       .  A
C23          H25   1.081       .  S
Cu26         N29   2.066       .  S
Cu27         N37   2.095       .  S
Cu28         N30   2.088       .  S
Cu28         N36   2.089       .  S
N29          C33   1.344       .  A
N29          N30   1.321       .  A
N30          C31   1.348   1_565  A
C31          C32   1.387       .  A
C31          H34   1.082       .  S
C32          C33   1.381   1_545  A
C33          H35   1.083       .  S
N36          C40   1.348       .  A
N36          N37   1.324       .  A
N37          C38   1.349       .  A
C38          C39   1.387       .  A
C38          H41   1.082       .  S
C39          C63   1.481       .  S
C39          C40   1.385       .  A
C40          H42   1.081       .  S
N43          C47   1.352   1_565  A
N43          N44   1.323       .  A
N43         Cu51   2.095       .  S
N44          C45   1.341   1_565  A
N44         Cu50   2.066       .  S
C45          C46   1.379       .  A
C45          H48   1.082       .  S
C46         C143   1.472       .  S
C46          C47   1.389       .  A
C47          H49   1.082       .  S
Cu50         N53   2.065       .  S
Cu51         N61   2.096       .  S
Cu52         N54   2.085       .  S
Cu52         N60   2.086       .  S
N53          C57   1.345       .  A
N53          N54   1.321       .  A
N54          C55   1.347       .  A
C55          C56   1.386       .  A
C55          H58   1.082       .  S
C56          C77   1.468       .  S
C56          C57   1.381       .  A
C57          H59   1.083       .  S
N60          C64   1.348       .  A
N60          N61   1.324       .  A
N61          C62   1.348       .  A
C62          C63   1.387       .  A
C62          H65   1.082       .  S
C63          C64   1.385       .  A
C64          H66   1.082       .  S
C67          N68   1.362   1_556  A
C67          N72   1.359       .  A
C67         C641   1.474       .  S
N68          C69   1.360       .  A
C69          N70   1.356   1_554  A
C69         C112   1.468       .  S
N70          C71   1.354       .  A
C71          N72   1.356       .  A
C71         C484   1.464       .  S
C73          N74   1.356       .  A
C73          N78   1.358   1_554  A
C73         C710   1.477       .  S
N74          C75   1.355       .  A
C75          N76   1.360       .  A
C75         C122   1.467       .  S
N76          C77   1.361   1_554  A
C77          N78   1.358       .  A
C79          N80   1.359       .  A
C79          N84   1.364       .  A
C79         C621   1.484       .  S
N80          C81   1.354       .  A
C81          N82   1.354       .  A
C81         C172   1.464       .  S
N82          C83   1.357       .  A
C83          N84   1.361       .  A
C83          C88   1.469       .  S
N85          C89   1.351       .  A
N85          N86   1.322       .  A
N85         Cu93   2.085       .  S
N86          C87   1.340       .  A
N86         Cu92   2.063       .  S
C87          C88   1.379       .  A
C87          H90   1.082       .  S
C88          C89   1.387       .  A
C89          H91   1.082       .  S
Cu92         N95   2.061       .  S
Cu93        N103   2.086       .  S
Cu94         N96   2.072       .  S
Cu94        N102   2.073       .  S
N95          C99   1.343       .  A
N95          N96   1.320       .  A
N96          C97   1.345   1_655  A
C97          C98   1.385   1_455  A
C97         H100   1.082       .  S
C98         C137   1.463   1_655  S
C98          C99   1.380       .  A
C99         H101   1.083       .  S
N102        C106   1.346       .  A
N102        N103   1.324       .  A
N103        C104   1.346       .  A
C104        C105   1.385       .  A
C104        H107   1.082       .  S
C105        C129   1.473       .  S
C105        C106   1.382       .  A
C106        H108   1.081       .  S
N109        C113   1.351       .  A
N109        N110   1.323   1_455  A
N109       Cu117   2.084   1_455  S
N110        C111   1.340   1_655  A
N110       Cu116   2.067       .  S
C111        C112   1.379       .  A
C111        H114   1.083       .  S
C112        C113   1.386       .  A
C113        H115   1.082       .  S
Cu116       N119   2.066       .  S
Cu117       N127   2.085       .  S
Cu118       N120   2.072       .  S
Cu118       N126   2.073       .  S
N119        C123   1.345       .  A
N119        N120   1.320       .  A
N120        C121   1.345       .  A
C121        C122   1.385       .  A
C121        H124   1.082       .  S
C122        C123   1.382       .  A
C123        H125   1.083       .  S
N126        C130   1.344       .  A
N126        N127   1.324       .  A
N127        C128   1.347       .  A
C128        C129   1.385       .  A
C128        H131   1.082       .  S
C129        C130   1.381       .  A
C130        H132   1.081       .  S
C133        N134   1.356       .  A
C133        N138   1.357       .  A
C133        C610   1.474       .  S
N134        C135   1.357       .  A
C135        N136   1.359       .  A
C135        C464   1.464       .  S
N136        C137   1.359       .  A
C137        N138   1.356       .  A
C139        N140   1.358   1_556  A
C139        N144   1.365       .  A
C139        C590   1.495       .  S
N140        C141   1.353       .  A
C141        N142   1.354   1_554  A
C141        C322   1.467       .  S
N142        C143   1.358       .  A
C143        N144   1.363       .  A
N145        C149   1.348       .  A
N145        N146   1.322       .  A
N145       Cu153   2.083       .  S
N146        C147   1.342       .  A
N146       Cu152   2.063       .  S
C147        C148   1.380       .  A
C147        H150   1.082       .  S
C148        C149   1.387       .  A
C149        H151   1.082       .  S
Cu152       N155   2.063       .  S
Cu153       N163   2.084       .  S
Cu154       N156   2.073       .  S
Cu154       N162   2.074       .  S
N155        C159   1.342       .  A
N155        N156   1.322       .  A
N156        C157   1.347       .  A
C157        C158   1.384       .  A
C157        H160   1.082       .  S
C158        C251   1.466       .  S
C158        C159   1.379       .  A
C159        H161   1.082       .  S
N162        C166   1.345       .  A
N162        N163   1.323       .  A
N163        C164   1.346       .  A
C164        C165   1.385       .  A
C164        H167   1.082       .  S
C165        C189   1.474       .  S
C165        C166   1.383       .  A
C166        H168   1.082       .  S
N169        C173   1.346       .  A
N169        N170   1.322       .  A
N169       Cu177   2.075       .  S
N170        C171   1.343       .  A
N170       Cu176   2.062       .  S
C171        C172   1.380       .  A
C171        H174   1.082       .  S
C172        C173   1.384       .  A
C173        H175   1.082       .  S
Cu176       N179   2.062       .  S
Cu177       N187   2.076       .  S
Cu178       N180   2.080       .  S
Cu178       N186   2.081       .  S
N179        C183   1.342       .  A
N179        N180   1.322       .  A
N180        C181   1.347       .  A
C181        C182   1.385       .  A
C181        H184   1.082       .  S
C182        C317   1.465       .  S
C182        C183   1.379       .  A
C183        H185   1.082       .  S
N186        C190   1.346       .  A
N186        N187   1.323       .  A
N187        C188   1.345       .  A
C188        C189   1.383       .  A
C188        H191   1.082       .  S
C189        C190   1.384       .  A
C190        H192   1.082       .  S
C193        N194   1.356       .  A
C193        N198   1.357       .  A
C193        C661   1.481       .  S
N194        C195   1.356       .  A
C195        N196   1.358       .  A
C195        C440   1.461       .  S
N196        C197   1.359       .  A
C197        N198   1.358       .  A
C197        C212   1.463       .  S
N199        C203   1.352       .  A
N199        N200   1.323       .  A
N199       Cu207   2.092       .  S
N200        C201   1.339       .  A
N200       Cu206   2.067       .  S
C201        C202   1.378       .  A
C201        H204   1.083       .  S
C202        C249   1.471       .  S
C202        C203   1.388       .  A
C203        H205   1.082       .  S
Cu206       N209   2.066       .  S
Cu207       N217   2.093       .  S
Cu208       N210   2.062       .  S
Cu208       N216   2.064       .  S
N209        C213   1.345       .  A
N209        N210   1.320       .  A
N210        C211   1.344       .  A
C211        C212   1.382       .  A
C211        H214   1.082       .  S
C212        C213   1.382       .  A
C213        H215   1.083       .  S
N216        C220   1.342       .  A
N216        N217   1.323       .  A
N217        C218   1.349       .  A
C218        C219   1.387       .  A
C218        H221   1.082       .  S
C219        C243   1.473       .  S
C219        C220   1.380       .  A
C220        H222   1.082       .  S
N223        C227   1.351       .  A
N223        N224   1.322       .  A
N223       Cu231   2.081       .  S
N224        C225   1.338       .  A
N224       Cu230   2.063       .  S
C225        C226   1.380       .  A
C225        H228   1.083       .  S
C226        C369   1.469       .  S
C226        C227   1.387       .  A
C227        H229   1.081       .  S
Cu230       N233   2.062       .  S
Cu231       N241   2.083       .  S
Cu232       N234   2.078       .  S
Cu232       N240   2.078       .  S
N233        C237   1.344       .  A
N233        N234   1.321       .  A
N234        C235   1.346       .  A
C235        C236   1.385       .  A
C235        H238   1.082       .  S
C236        C237   1.380       .  A
C237        H239   1.083       .  S
N240        C244   1.347       .  A
N240        N241   1.324       .  A
N241        C242   1.345       .  A
C242        C243   1.384       .  A
C242        H245   1.082       .  S
C243        C244   1.383       .  A
C244        H246   1.081       .  S
C247        N248   1.366       .  A
C247        N252   1.360       .  A
C247        C561   1.489       .  S
N248        C249   1.362       .  A
C249        N250   1.356       .  A
N250        C251   1.353       .  A
C251        N252   1.354       .  A
N253        C257   1.351       .  A
N253        N254   1.323       .  A
N253       Cu261   2.085       .  S
N254        C255   1.342       .  A
N254       Cu260   2.075       .  S
C255        C256   1.381       .  A
C255        H258   1.083       .  S
C256        C315   1.472       .  S
C256        C257   1.386       .  A
C257        H259   1.082       .  S
Cu260       N263   2.074       .  S
Cu261       N271   2.086       .  S
Cu262       N264   2.083       .  S
Cu262       N270   2.083       .  S
N263        C267   1.346       .  A
N263        N264   1.322       .  A
N264        C265   1.347       .  A
C265        C266   1.385       .  A
C265        H268   1.082       .  S
C266        C305   1.468       .  S
C266        C267   1.382       .  A
C267        H269   1.083       .  S
N270        C274   1.348       .  A
N270        N271   1.324       .  A
N271        C272   1.346       .  A
C272        C273   1.384       .  A
C272        H275   1.082       .  S
C273        C297   1.477       .  S
C273        C274   1.385       .  A
C274        H276   1.082       .  S
N277        C281   1.351       .  A
N277        N278   1.323       .  A
N277       Cu285   2.088       .  S
N278        C279   1.339       .  A
N278       Cu284   2.061       .  S
C279        C280   1.378       .  A
C279        H282   1.083       .  S
C280        C311   1.468       .  S
C280        C281   1.387       .  A
C281        H283   1.081       .  S
Cu284       N287   2.059       .  S
Cu285       N295   2.089       .  S
Cu286       N288   2.079       .  S
Cu286       N294   2.080       .  S
N287        C291   1.344       .  A
N287        N288   1.320       .  A
N288        C289   1.346       .  A
C289        C290   1.386       .  A
C289        H292   1.082       .  S
C290        C291   1.380       .  A
C291        H293   1.083       .  S
N294        C298   1.345       .  A
N294        N295   1.324       .  A
N295        C296   1.349       .  A
C296        C297   1.386       .  A
C296        H299   1.082       .  S
C297        C298   1.383       .  A
C298        H300   1.081       .  S
C301        N302   1.356       .  A
C301        N306   1.358       .  A
C301        C601   1.477       .  S
N302        C303   1.356       .  A
C303        N304   1.361       .  A
C303        C392   1.468       .  S
N304        C305   1.361       .  A
C305        N306   1.358       .  A
C307        N308   1.359   1_554  A
C307        N312   1.362       .  A
C307        C581   1.471       .  S
N308        C309   1.356       .  A
C309        N310   1.354       .  A
C309        C494   1.464       .  S
N310        C311   1.356   1_556  A
C311        N312   1.359       .  A
C313        N314   1.364       .  A
C313        N318   1.358       .  A
C313        C550   1.475       .  S
N314        C315   1.363       .  A
C315        N316   1.357       .  A
N316        C317   1.355       .  A
C317        N318   1.354       .  A
N319        C323   1.345       .  A
N319        N320   1.322       .  A
N319       Cu327   2.076       .  S
N320        C321   1.344       .  A
N320       Cu326   2.065       .  S
C321        C322   1.381       .  A
C321        H324   1.082       .  S
C322        C323   1.384       .  A
C323        H325   1.081       .  S
Cu326       N329   2.064       .  S
Cu327       N337   2.076       .  S
Cu328       N330   2.067   1_655  S
Cu328       N336   2.067       .  S
N329        C333   1.341   1_655  A
N329        N330   1.322   1_655  A
N330        C331   1.345       .  A
C331        C332   1.382       .  A
C331        H334   1.082       .  S
C332        C371   1.462       .  S
C332        C333   1.380       .  A
C333        H335   1.082       .  S
N336        C340   1.344       .  A
N336        N337   1.322       .  A
N337        C338   1.346       .  A
C338        C339   1.384       .  A
C338        H341   1.082       .  S
C339        C363   1.470       .  S
C339        C340   1.382       .  A
C340        H342   1.082       .  S
N343        C347   1.346       .  A
N343        N344   1.321       .  A
N343       Cu351   2.071       .  S
N344        C345   1.343       .  A
N344       Cu350   2.066       .  S
C345        C346   1.380       .  A
C345        H348   1.082       .  S
C346        C377   1.464       .  S
C346        C347   1.383       .  A
C347        H349   1.082       .  S
Cu350       N353   2.064       .  S
Cu351       N361   2.072       .  S
Cu352       N354   2.075       .  S
Cu352       N360   2.076       .  S
N353        C357   1.340       .  A
N353        N354   1.322       .  A
N354        C355   1.348   1_655  A
C355        C356   1.385       .  A
C355        H358   1.082       .  S
C356        C537   1.465       .  S
C356        C357   1.380   1_455  A
C357        H359   1.082       .  S
N360        C364   1.345       .  A
N360        N361   1.323       .  A
N361        C362   1.345       .  A
C362        C363   1.382       .  A
C362        H365   1.082       .  S
C363        C364   1.383       .  A
C364        H366   1.082       .  S
C367        N368   1.366       .  A
C367        N372   1.360   1_556  A
C367        C650   1.491       .  S
N368        C369   1.362       .  A
C369        N370   1.355       .  A
N370        C371   1.350   1_556  A
C371        N372   1.353       .  A
C373        N374   1.365       .  A
C373        N378   1.360       .  A
C373        C630   1.484       .  S
N374        C375   1.361       .  A
C375        N376   1.356       .  A
C375        C382   1.470       .  S
N376        C377   1.353       .  A
C377        N378   1.355       .  A
N379        C383   1.352       .  A
N379        N380   1.323       .  A
N379       Cu387   2.087       .  S
N380        C381   1.340       .  A
N380       Cu386   2.070       .  S
C381        C382   1.379       .  A
C381        H384   1.082       .  S
C382        C383   1.387       .  A
C383        H385   1.081       .  S
Cu386       N389   2.069       .  S
Cu387       N397   2.088       .  S
Cu388       N390   2.076       .  S
Cu388       N396   2.077       .  S
N389        C393   1.346       .  A
N389        N390   1.321       .  A
N390        C391   1.345       .  A
C391        C392   1.385       .  A
C391        H394   1.082       .  S
C392        C393   1.382       .  A
C393        H395   1.083       .  S
N396        C400   1.345       .  A
N396        N397   1.324       .  A
N397        C398   1.348       .  A
C398        C399   1.385       .  A
C398        H401   1.082       .  S
C399        C423   1.475       .  S
C399        C400   1.382       .  A
C400        H402   1.081       .  S
N403        C407   1.350       .  A
N403        N404   1.323       .  A
N403       Cu411   2.081       .  S
N404        C405   1.341       .  A
N404       Cu410   2.071       .  S
C405        C406   1.381       .  A
C405        H408   1.082       .  S
C406        C533   1.470       .  S
C406        C407   1.386       .  A
C407        H409   1.081       .  S
Cu410       N413   2.071       .  S
Cu411       N421   2.083       .  S
Cu412       N414   2.080       .  S
Cu412       N420   2.080       .  S
N413        C417   1.345       .  A
N413        N414   1.321       .  A
N414        C415   1.346       .  A
C415        C416   1.385       .  A
C415        H418   1.082       .  S
C416        C417   1.382       .  A
C417        H419   1.083       .  S
N420        C424   1.346       .  A
N420        N421   1.324       .  A
N421        C422   1.346       .  A
C422        C423   1.384       .  A
C422        H425   1.082       .  S
C423        C424   1.383       .  A
C424        H426   1.081       .  S
N427        C431   1.351       .  A
N427        N428   1.323       .  A
N427       Cu435   2.089       .  S
N428        C429   1.340       .  A
N428       Cu434   2.066       .  S
C429        C430   1.379       .  A
C429        H432   1.083       .  S
C430        C479   1.469       .  S
C430        C431   1.387       .  A
C431        H433   1.082       .  S
Cu434       N437   2.064       .  S
Cu435       N445   2.090       .  S
Cu436       N438   2.065       .  S
Cu436       N444   2.065       .  S
N437        C441   1.345       .  A
N437        N438   1.320       .  A
N438        C439   1.343       .  A
C439        C440   1.382       .  A
C439        H442   1.082       .  S
C440        C441   1.381       .  A
C441        H443   1.083       .  S
N444        C448   1.344       .  A
N444        N445   1.323       .  A
N445        C446   1.347       .  A
C446        C447   1.387       .  A
C446        H449   1.082       .  S
C447        C471   1.473       .  S
C447        C448   1.380       .  A
C448        H450   1.081       .  S
N451        C455   1.353       .  A
N451        N452   1.323       .  A
N451       Cu459   2.091       .  S
N452        C453   1.337       .  A
N452       Cu458   2.062       .  S
C453        C454   1.379       .  A
C453        H456   1.083       .  S
C454        C539   1.472       .  S
C454        C455   1.389       .  A
C455        H457   1.081       .  S
Cu458       N461   2.059       .  S
Cu459       N469   2.093       .  S
Cu460       N462   2.066       .  S
Cu460       N468   2.067       .  S
N461        C465   1.343       .  A
N461        N462   1.319       .  A
N462        C463   1.344       .  A
C463        C464   1.384       .  A
C463        H466   1.082       .  S
C464        C465   1.381       .  A
C465        H467   1.083       .  S
N468        C472   1.344       .  A
N468        N469   1.324       .  A
N469        C470   1.348       .  A
C470        C471   1.387       .  A
C470        H473   1.082       .  S
C471        C472   1.380       .  A
C472        H474   1.082       .  S
C475        N476   1.359       .  A
C475        N480   1.363       .  A
C475        C681   1.475   1_455  S
N476        C477   1.355       .  A
C477        N478   1.354       .  A
C477        C518   1.465       .  S
N478        C479   1.357       .  A
C479        N480   1.361       .  A
N481        C485   1.346       .  A
N481        N482   1.321       .  A
N481       Cu489   2.068       .  S
N482        C483   1.342       .  A
N482       Cu488   2.063       .  S
C483        C484   1.380       .  A
C483        H486   1.082       .  S
C484        C485   1.383       .  A
C485        H487   1.082       .  S
Cu488       N491   2.062   1_565  S
Cu489       N499   2.069       .  S
Cu490       N492   2.076   1_565  S
Cu490       N498   2.076       .  S
N491        C495   1.341       .  A
N491        N492   1.322       .  A
N492        C493   1.347       .  A
C493        C494   1.384       .  A
C493        H496   1.082       .  S
C494        C495   1.379       .  A
C495        H497   1.082       .  S
N498        C502   1.346       .  A
N498        N499   1.323       .  A
N499        C500   1.343       .  A
C500        C501   1.381       .  A
C500        H503   1.082       .  S
C501        C525   1.470       .  S
C501        C502   1.384       .  A
C502        H504   1.082       .  S
N505        C509   1.346   1_565  A
N505        N506   1.322       .  A
N505       Cu513   2.071       .  S
N506        C507   1.342       .  A
N506       Cu512   2.063       .  S
C507        C508   1.379   1_565  A
C507        H510   1.082       .  S
C508        C531   1.463       .  S
C508        C509   1.383       .  A
C509        H511   1.082       .  S
Cu512       N515   2.064       .  S
Cu513       N523   2.071       .  S
Cu514       N516   2.072       .  S
Cu514       N522   2.073       .  S
N515        C519   1.342       .  A
N515        N516   1.322       .  A
N516        C517   1.346       .  A
C517        C518   1.384       .  A
C517        H520   1.082       .  S
C518        C519   1.380       .  A
C519        H521   1.082       .  S
N522        C526   1.344       .  A
N522        N523   1.323       .  A
N523        C524   1.345       .  A
C524        C525   1.383       .  A
C524        H527   1.082       .  S
C525        C526   1.382       .  A
C526        H528   1.082       .  S
C529        N530   1.359       .  A
C529        N534   1.364       .  A
C529        C570   1.482       .  S
N530        C531   1.354       .  A
C531        N532   1.353       .  A
N532        C533   1.356       .  A
C533        N534   1.362       .  A
C535        N536   1.362       .  A
C535        N540   1.367       .  A
C535        C541   1.489       .  S
N536        C537   1.354       .  A
C537        N538   1.351       .  A
N538        C539   1.355       .  A
C539        N540   1.362       .  A
C541        C542   1.415       .  A
C541        C546   1.419       .  A
C542        C543   1.411       .  A
C542       Br554   1.931       .  S
C543        C544   1.410       .  A
C543       Br558   1.931       .  S
C544        C547   1.487       .  S
C544        C545   1.406       .  A
C545        C546   1.407       .  A
C545       Br553   1.932       .  S
C546       Br557   1.934       .  S
C547        C548   1.411       .  A
C547        C552   1.410       .  A
C548        C549   1.408       .  A
C548       Br559   1.929       .  S
C549        C550   1.409       .  A
C549       Br555   1.929       .  S
C550        C551   1.410       .  A
C551        C552   1.407       .  A
C551       Br560   1.930       .  S
C552       Br556   1.930       .  S
C561        C562   1.416       .  A
C561        C566   1.419       .  A
C562        C563   1.410       .  A
C562       Br574   1.931       .  S
C563        C564   1.409       .  A
C563       Br578   1.931       .  S
C564        C567   1.486       .  S
C564        C565   1.406       .  A
C565        C566   1.408       .  A
C565       Br573   1.931       .  S
C566       Br577   1.934       .  S
C567        C568   1.409       .  A
C567        C572   1.408       .  A
C568        C569   1.409       .  A
C568       Br579   1.929       .  S
C569        C570   1.412       .  A
C569       Br575   1.930       .  S
C570        C571   1.414       .  A
C571        C572   1.407       .  A
C571       Br580   1.932       .  S
C572       Br576   1.930       .  S
C581        C582   1.408       .  A
C581        C586   1.407   1_554  A
C582        C583   1.407       .  A
C582       Br594   1.929   1_545  S
C583        C584   1.410       .  A
C583       Br598   1.929   1_545  S
C584        C587   1.487       .  S
C584        C585   1.412   1_554  A
C585        C586   1.407       .  A
C585       Br593   1.929       .  S
C586       Br597   1.929       .  S
C587        C588   1.406       .  A
C587        C592   1.408   1_554  A
C588        C589   1.407       .  A
C588       Br599   1.933       .  S
C589        C590   1.422   1_554  A
C589       Br595   1.935       .  S
C590        C591   1.419       .  A
C591        C592   1.410       .  A
C591       Br600   1.931       .  S
C592       Br596   1.932       .  S
C601        C602   1.412   1_545  A
C601        C606   1.412   1_545  A
C602        C603   1.406       .  A
C602       Br614   1.931   1_565  S
C603        C604   1.408       .  A
C603       Br618   1.931       .  S
C604        C607   1.481       .  S
C604        C605   1.408       .  A
C605        C606   1.407       .  A
C605       Br613   1.930       .  S
C606       Br617   1.931   1_565  S
C607        C608   1.408       .  A
C607        C612   1.409       .  A
C608        C609   1.406       .  A
C608       Br619   1.930       .  S
C609        C610   1.412       .  A
C609       Br615   1.932       .  S
C610        C611   1.411       .  A
C611        C612   1.406       .  A
C611       Br620   1.931       .  S
C612       Br616   1.930       .  S
C621        C622   1.415       .  A
C621        C626   1.416       .  A
C622        C623   1.409       .  A
C622       Br634   1.931       .  S
C623        C624   1.408       .  A
C623       Br638   1.930       .  S
C624        C627   1.485       .  S
C624        C625   1.407       .  A
C625        C626   1.407       .  A
C625       Br633   1.931       .  S
C626       Br637   1.933       .  S
C627        C628   1.407       .  A
C627        C632   1.409       .  A
C628        C629   1.408   1_565  A
C628       Br639   1.930   1_565  S
C629        C630   1.416       .  A
C629       Br635   1.932       .  S
C630        C631   1.414   1_545  A
C631        C632   1.408       .  A
C631       Br640   1.931       .  S
C632       Br636   1.931       .  S
C641        C642   1.409   1_556  A
C641        C646   1.410       .  A
C642        C643   1.408       .  A
C642       Br654   1.930       .  S
C643        C644   1.410   1_554  A
C643       Br658   1.929       .  S
C644        C647   1.485       .  S
C644        C645   1.409       .  A
C645        C646   1.406       .  A
C645       Br653   1.930       .  S
C646       Br657   1.930       .  S
C647        C648   1.408       .  A
C647        C652   1.405       .  A
C648        C649   1.410       .  A
C648       Br659   1.931       .  S
C649        C650   1.418       .  A
C649       Br655   1.931       .  S
C650        C651   1.419       .  A
C651        C652   1.406       .  A
C651       Br660   1.935   1_456  S
C652       Br656   1.933   1_556  S
C661        C662   1.415       .  A
C661        C666   1.414       .  A
C662        C663   1.406   1_455  A
C662       Br674   1.933       .  S
C663        C664   1.407       .  A
C663       Br678   1.930       .  S
C664        C667   1.483       .  S
C664        C665   1.408       .  A
C665        C666   1.408   1_655  A
C665       Br673   1.931       .  S
C666       Br677   1.932       .  S
C667        C668   1.407       .  A
C667        C672   1.408       .  A
C668        C669   1.407       .  A
C668       Br679   1.931       .  S
C669        C670   1.414       .  A
C669       Br675   1.931       .  S
C670        C671   1.413       .  A
C671        C672   1.407       .  A
C671       Br680   1.931       .  S
C672       Br676   1.930       .  S
C681        C682   1.410       .  A
C681        C686   1.411       .  A
C682        C683   1.407       .  A
C682       Br694   1.929   1_655  S
C683        C684   1.409       .  A
C683       Br698   1.930       .  S
C684        C687   1.484       .  S
C684        C685   1.408       .  A
C685        C686   1.407       .  A
C685       Br693   1.929       .  S
C686       Br697   1.931       .  S
C687        C688   1.406       .  A
C687        C692   1.404       .  A
C688        C689   1.409       .  A
C688       Br699   1.932       .  S
C689        C690   1.420       .  A
C689       Br695   1.933       .  S
C690        C691   1.423       .  A
C691        C692   1.408       .  A
C691       Br700   1.935       .  S
C692       Br696   1.932       .  S
C701        C702   1.416   1_554  A
C701        C706   1.416       .  A
C702        C703   1.405       .  A
C702       Br714   1.933       .  S
C703        C704   1.406   1_556  A
C703       Br718   1.932       .  S
C704        C707   1.480       .  S
C704        C705   1.407       .  A
C705        C706   1.407       .  A
C705       Br713   1.931       .  S
C706       Br717   1.932       .  S
C707        C708   1.407       .  A
C707        C712   1.408       .  A
C708        C709   1.405       .  A
C708       Br719   1.931       .  S
C709        C710   1.414       .  A
C709       Br715   1.932       .  S
C710        C711   1.413       .  A
C711        C712   1.406       .  A
C711       Br720   1.931       .  S
C712       Br716   1.930   1_554  S
