geometry optimzed in LAMMPS
_audit_creation_date              2020-11-30 
_audit_creation_method            'lammps2cif' 
_symmetry_space_group_name_H-M    'P1' 
_symmetry_Int_Tables_number       1 
_symmetry_cell_setting            triclinic 
loop_ 
_symmetry_equiv_pos_as_xyz 
  x,y,z 
_cell_length_a                    48.39618457 
_cell_length_b                    46.964928073828226 
_cell_length_c                    48.81441898180737 
_cell_angle_alpha                 90.03757559629797 
_cell_angle_beta                  89.89921818950884 
_cell_angle_gamma                 90.53814648402513 
loop_ 
_atom_site_label 
_atom_site_type_symbol 
_atom_site_fract_x 
_atom_site_fract_y 
_atom_site_fract_z 
_atom_site_charge 
N1          N  0.70144666  0.81748042  0.14103530    -0.26800
N2          N  0.67987903  0.83424323  0.14386647    -0.34600
C3          C  0.67442623  0.83766722  0.17062053     0.01600
C4          C  0.69326553  0.82206556  0.18562541     0.07600
C5          C  0.71028511  0.80971544  0.16608108    -0.05500
H6          H  0.65860588  0.85159407  0.17846230     0.08300
H7          H  0.72805036  0.79645553  0.16977893     0.09500
Cu8        Cu  0.65942374  0.85302181  0.11149666     0.44200
Cu9        Cu  0.71807313  0.80777238  0.10290945     0.42000
Cu10       Cu  0.68270036  0.83872235  0.04306414     0.43900
N11         N  0.64124813  0.87037252  0.07708071    -0.34100
N12         N  0.64927393  0.86498633  0.05176678    -0.28400
C13         C  0.63383624  0.88042746  0.03437545    -0.04500
C14         C  0.61537743  0.89674419  0.04954129     0.07700
C15         C  0.62077088  0.88943551  0.07654602     0.01500
H16         H  0.63627508  0.87983215  0.01240332     0.09200
H17         H  0.61135919  0.89831027  0.09472128     0.08200
N18         N  0.71785472  0.81340703  0.04091740    -0.35600
N19         N  0.73049590  0.80244991  0.06244347    -0.27800
C20         C  0.75264710  0.78784468  0.05384899    -0.03000
C21         C  0.75407498  0.78941371  0.02554918     0.05600
C22         C  0.73171938  0.80597485  0.01809909     0.03700
H23         H  0.76670679  0.77681142  0.06728971     0.08800
H24         H  0.72626111  0.81282334  0.99768561     0.07600
N25         N  0.88738421  0.68968795  0.84820730    -0.26800
N26         N  0.90544910  0.66880122  0.84690805    -0.34600
C27         C  0.91033219  0.66256772  0.82049328     0.01600
C28         C  0.89445673  0.68024046  0.80428485     0.07600
C29         C  0.88033281  0.69733114  0.82261149    -0.05500
H30         H  0.92524999  0.64708955  0.81365936     0.08300
H31         H  0.86617779  0.71427478  0.81772466     0.09500
Cu32       Cu  0.92438275  0.65095818  0.88081524     0.44200
Cu33       Cu  0.87381902  0.70720878  0.88472538     0.42000
Cu34       Cu  0.90800209  0.68209415  0.94632360     0.43900
N35         N  0.94352926  0.63925584  0.91703596    -0.34100
N36         N  0.93843489  0.65150501  0.94089078    -0.28400
C37         C  0.95431369  0.63938711  0.96019129    -0.04500
C38         C  0.97001475  0.61842078  0.94789830     0.07700
C39         C  0.96243367  0.61875781  0.92058619     0.01500
H40         H  0.95345959  0.64444471  0.98179986     0.09200
H41         H  0.96976302  0.60477959  0.90456897     0.08200
N42         N  0.87485926  0.71010390  0.94642810    -0.35600
N43         N  0.86257532  0.71928820  0.92398536    -0.27800
C44         C  0.84126978  0.73594450  0.93107290    -0.03000
C45         C  0.84001909  0.73752579  0.95939407     0.05600
C46         C  0.86159276  0.72066132  0.96839410     0.03700
H47         H  0.82741204  0.74580001  0.91660947     0.08800
H48         H  0.86663912  0.71538899  0.98934230     0.07600
N49         N  0.89949547  0.69695503  0.64228755    -0.26800
N50         N  0.92115293  0.68035096  0.64535009    -0.34600
C51         C  0.92522263  0.67563166  0.67214624     0.01600
C52         C  0.90534354  0.69017446  0.68675400     0.07600
C53         C  0.88931959  0.70351615  0.66718711    -0.05500
H54         H  0.94102458  0.66193216  0.68037286     0.08300
H55         H  0.87084337  0.71579647  0.67069518     0.09500
Cu56       Cu  0.94292145  0.66292344  0.61305662     0.44200
Cu57       Cu  0.88373977  0.70690102  0.60404471     0.42000
Cu58       Cu  0.91978157  0.67600068  0.54435948     0.43900
N59         N  0.96130602  0.64529016  0.57882213    -0.34100
N60         N  0.95323290  0.64997698  0.55341823    -0.28400
C61         C  0.96889523  0.63433552  0.53629515    -0.04500
C62         C  0.98760404  0.61877220  0.55176963     0.07700
C63         C  0.98206168  0.62656510  0.57862571     0.01500
H64         H  0.96659253  0.63434692  0.51429287     0.09200
H65         H  0.99170621  0.61837750  0.59693938     0.08200
N66         N  0.88453549  0.70113385  0.54212813    -0.35600
N67         N  0.87171238  0.71209842  0.56359938    -0.27800
C68         C  0.85003436  0.72728722  0.55489960    -0.03000
C69         C  0.84891553  0.72579720  0.52660062     0.05600
C70         C  0.87123760  0.70912405  0.51922304     0.03700
H71         H  0.83611425  0.73867777  0.56826902     0.08800
H72         H  0.87787867  0.70380411  0.49870227     0.07600
N73         N  0.71855526  0.82717954  0.34691092    -0.26800
N74         N  0.69891984  0.84652038  0.34562276    -0.34600
C75         C  0.69149965  0.84991141  0.31931419     0.01600
C76         C  0.70728717  0.83199940  0.30318327     0.07600
C77         C  0.72419654  0.81785715  0.32144524    -0.05500
H78         H  0.67531244  0.86394888  0.31247790     0.08300
H79         H  0.73862572  0.80107664  0.31680173     0.09500
Cu80       Cu  0.68102130  0.86571386  0.37965387     0.44200
Cu81       Cu  0.73524676  0.81264760  0.38333294     0.42000
Cu82       Cu  0.69899004  0.83562960  0.44471698     0.43900
N83         N  0.66278672  0.87816096  0.41633276    -0.34100
N84         N  0.66833701  0.86597893  0.44007364    -0.28400
C85         C  0.65321148  0.87844210  0.45983020    -0.04500
C86         C  0.63750379  0.89964671  0.44799265     0.07700
C87         C  0.64430306  0.89900011  0.42042074     0.01500
H88         H  0.65468241  0.87350112  0.48142033     0.09200
H89         H  0.63671034  0.91298807  0.40458067     0.08200
N90         N  0.73393608  0.81019414  0.44498416    -0.35600
N91         N  0.74717523  0.80182587  0.42271180    -0.27800
C92         C  0.76923997  0.78641730  0.43013871    -0.03000
C93         C  0.77017516  0.78536169  0.45846794     0.05600
C94         C  0.74733718  0.80049634  0.46714674     0.03700
H95         H  0.78382600  0.77713516  0.41596483     0.08800
H96         H  0.74079007  0.80411698  0.48804618     0.07600
N97         N  0.04712173  0.49606694  0.97939781    -0.02900
C98         C  0.05106982  0.51133526  0.95597080    -0.00400
C99         C  0.05508623  0.49294045  0.93426389    -0.23200
C100        C  0.05620997  0.46598975  0.94497266    -0.23400
C101        C  0.05289667  0.46848941  0.97300928    -0.00500
H102        H  0.06157446  0.49874899  0.91376781     0.13300
H103        H  0.06372661  0.44751847  0.93409191     0.13400
N104        N  0.03718004  0.50679819  0.00495338    -0.02900
C105        C  0.03542594  0.49251450  0.02930795    -0.00400
C106        C  0.03013931  0.51165983  0.05018825    -0.23200
C107        C  0.02633408  0.53775287  0.03831113    -0.23400
C108        C  0.02937931  0.53410409  0.01041119    -0.00500
H109        H  0.02504661  0.50648438  0.07121539     0.13300
H110        H  0.01834619  0.55639018  0.04858011     0.13400
N111        N  0.39464087  0.83618240  0.34811298    -0.26800
N112        N  0.41414700  0.85570664  0.34469480    -0.34600
C113        C  0.41746019  0.86073632  0.31779450     0.01600
C114        C  0.39919134  0.84343806  0.30351100     0.07600
C115        C  0.38519883  0.82794915  0.32339400    -0.05500
H116        H  0.43281740  0.87508505  0.30924526     0.08300
H117        H  0.36943939  0.81181848  0.32013078     0.09500
Cu118      Cu  0.43687837  0.87249021  0.37677809     0.44200
Cu119      Cu  0.38231939  0.82240919  0.38660689     0.42000
Cu120      Cu  0.42215438  0.84844280  0.44584545     0.43900
N121        N  0.45964967  0.88453343  0.41072417    -0.34100
N122        N  0.45478237  0.87576642  0.43600481    -0.28400
C123        C  0.47288482  0.88870629  0.45300489    -0.04500
C124        C  0.48987154  0.90657994  0.43759143     0.07700
C125        C  0.48085460  0.90311138  0.41090622     0.01500
H126        H  0.47325013  0.88559250  0.47493879     0.09200
H127        H  0.48836682  0.91429099  0.39296612     0.08200
N128        N  0.38600112  0.82424389  0.44861027    -0.35600
N129        N  0.37178479  0.81501830  0.42719665    -0.27800
C130        C  0.34918446  0.80096098  0.43604076    -0.03000
C131        C  0.34890316  0.80139952  0.46439831     0.05600
C132        C  0.37273558  0.81620400  0.47164624     0.03700
H133        H  0.33383032  0.79144570  0.42270786     0.08800
H134        H  0.38018701  0.82055448  0.49210587     0.07600
N135        N  0.21220206  0.70513360  0.64415541    -0.26800
N136        N  0.19156561  0.68652326  0.64481573    -0.34600
C137        C  0.18515294  0.68074452  0.67098674     0.01600
C138        C  0.20248028  0.69646594  0.68787148     0.07600
C139        C  0.21952393  0.71160522  0.67005044    -0.05500
H140        H  0.16879490  0.66628335  0.67724062     0.08300
H141        H  0.23638639  0.72581331  0.67533719     0.09500
Cu142      Cu  0.17244638  0.66958057  0.61056870     0.44200
Cu143      Cu  0.22916936  0.72066206  0.60787693     0.42000
Cu144      Cu  0.19175684  0.69939207  0.54605915     0.43900
N145        N  0.15469317  0.65695750  0.57399725    -0.34100
N146        N  0.16094255  0.66882843  0.55023347    -0.28400
C147        C  0.14673005  0.65548595  0.53027144    -0.04500
C148        C  0.13086521  0.63411622  0.54210707     0.07700
C149        C  0.13659578  0.63552194  0.56982141     0.01500
H150        H  0.14916864  0.65976781  0.50862196     0.09200
H151        H  0.12889189  0.62140035  0.58564967     0.08200
N152        N  0.22749694  0.72398499  0.54609282    -0.35600
N153        N  0.24134385  0.73152921  0.56831356    -0.27800
C154        C  0.26431318  0.74587241  0.56069747    -0.03000
C155        C  0.26513492  0.74708438  0.53232612     0.05600
C156        C  0.24126029  0.73323351  0.52385122     0.03700
H157        H  0.27965555  0.75416435  0.57476448     0.08800
H158        H  0.23427204  0.73000977  0.50304324     0.07600
N159        N  0.39416779  0.81804175  0.14221947    -0.26800
N160        N  0.41233623  0.83923400  0.14266780    -0.34600
C161        C  0.41675931  0.84715841  0.16873348     0.01600
C162        C  0.40081292  0.83006173  0.18569271     0.07600
C163        C  0.38667229  0.81182011  0.16815785    -0.05500
H164        H  0.43058581  0.86422095  0.17489606     0.08300
H165        H  0.37141505  0.79585890  0.17372031     0.09500
Cu166      Cu  0.43065473  0.85682466  0.10817599     0.44200
Cu167      Cu  0.37955988  0.79998985  0.10600866     0.42000
Cu168      Cu  0.41299053  0.82569497  0.04338075     0.43900
N169        N  0.44892874  0.86923310  0.07166027    -0.34100
N170        N  0.44338877  0.85691054  0.04792355    -0.28400
C171        C  0.45851527  0.86967627  0.02820989    -0.04500
C172        C  0.47415592  0.89116558  0.04014082     0.07700
C173        C  0.46736579  0.89044274  0.06766153     0.01500
H174        H  0.45708801  0.86474980  0.00660165     0.09200
H175        H  0.47482711  0.90467406  0.08350287     0.08200
N176        N  0.37945142  0.79767439  0.04403760    -0.35600
N177        N  0.36741111  0.78824601  0.06665898    -0.27800
C178        C  0.34574299  0.77158063  0.05975689    -0.03000
C179        C  0.34401267  0.77026829  0.03140531     0.05600
C180        C  0.36567892  0.78734378  0.02221909     0.03700
H181        H  0.33197762  0.76150710  0.07438154     0.08800
H182        H  0.37047963  0.79296410  0.00126218     0.07600
N183        N  0.19973728  0.69899183  0.85086316    -0.26800
N184        N  0.17678321  0.68394254  0.84759238    -0.34600
C185        C  0.17218341  0.68012342  0.82072110     0.01600
C186        C  0.19341092  0.69317667  0.80625871     0.07600
C187        C  0.21033999  0.70527689  0.82604280    -0.05500
H188        H  0.15486317  0.66826071  0.81240503     0.08300
H189        H  0.22952510  0.71676900  0.82268101     0.09500
Cu190      Cu  0.15434842  0.66650201  0.87962077     0.44200
Cu191      Cu  0.21649151  0.70743668  0.88914624     0.42000
Cu192      Cu  0.18173610  0.67377816  0.94795521     0.43900
N193        N  0.13792602  0.64561386  0.91327186    -0.34100
N194        N  0.14760435  0.64818447  0.93843332    -0.28400
C195        C  0.13365749  0.63001883  0.95488672    -0.04500
C196        C  0.11454972  0.61483964  0.93919131     0.07700
C197        C  0.11786881  0.62568348  0.91295480     0.01500
H198        H  0.13766546  0.62781800  0.97653300     0.09200
H199        H  0.10751253  0.61852631  0.89454205     0.08200
N200        N  0.21799638  0.69804439  0.95055732    -0.35600
N201        N  0.23038904  0.71010196  0.92928860    -0.27800
C202        C  0.25341265  0.72359330  0.93788471    -0.03000
C203        C  0.25570898  0.72014259  0.96596303     0.05600
C204        C  0.23291732  0.70361322  0.97323532     0.03700
H205        H  0.26741805  0.73524177  0.92460967     0.08800
H206        H  0.22779216  0.69559803  0.99338707     0.07600
N207        N  0.07254216  0.51615569  0.48570583    -0.02900
C208        C  0.07545626  0.50154092  0.46158523    -0.00400
C209        C  0.07966647  0.52047171  0.44033779    -0.23200
C210        C  0.08175901  0.54706775  0.45169461    -0.23400
C211        C  0.07868512  0.54386832  0.47969483    -0.00500
H212        H  0.08511206  0.51511252  0.41945261     0.13300
H213        H  0.08861503  0.56606198  0.44102279     0.13400
N214        N  0.06223307  0.50540061  0.51122251    -0.02900
C215        C  0.05617137  0.52075567  0.53418656    -0.00400
C216        C  0.05310568  0.50258676  0.55624451    -0.23200
C217        C  0.05501155  0.47542115  0.54628086    -0.23400
C218        C  0.05882166  0.47752159  0.51825958    -0.00500
H219        H  0.04567179  0.50812982  0.57646317     0.13300
H220        H  0.04874873  0.45652740  0.55745635     0.13400
N221        N  0.89198401  0.32034692  0.15806723    -0.26800
N222        N  0.91427881  0.33676619  0.15912500    -0.34600
C223        C  0.91980371  0.34312209  0.18537879     0.01600
C224        C  0.90017736  0.33001722  0.20189002     0.07600
C225        C  0.88278756  0.31573284  0.18379416    -0.05500
H226        H  0.93677627  0.35662086  0.19195712     0.08300
H227        H  0.86421777  0.30383140  0.18878491     0.09500
Cu228      Cu  0.93573093  0.35116683  0.12500676     0.44200
Cu229      Cu  0.87449490  0.30702885  0.12120552     0.42000
Cu230      Cu  0.91041922  0.33060180  0.05865593     0.43900
N231        N  0.95395828  0.36444049  0.08871692    -0.34100
N232        N  0.94514868  0.35660984  0.06424502    -0.28400
C233        C  0.96022873  0.37038078  0.04508378    -0.04500
C234        C  0.97919923  0.38827894  0.05811864     0.07700
C235        C  0.97461775  0.38350737  0.08582137     0.01500
H236        H  0.95690687  0.36791799  0.02335436     0.09200
H237        H  0.98439755  0.39448460  0.10276888     0.08200
N238        N  0.87347027  0.30730419  0.05907096    -0.35600
N239        N  0.86046726  0.29896122  0.08159594    -0.27800
C240        C  0.83715642  0.28491765  0.07453369    -0.03000
C241        C  0.83523746  0.28443502  0.04620493     0.05600
C242        C  0.85875930  0.29867652  0.03715331     0.03700
H243        H  0.82295635  0.27531124  0.08903059     0.08800
H244        H  0.86464909  0.30268902  0.01610478     0.00400
N245        N  0.70940861  0.18678930  0.86190715    -0.26800
N246        N  0.68817657  0.16917830  0.85895478    -0.34600
C247        C  0.68641731  0.16122970  0.83255346     0.01600
C248        C  0.70757211  0.17451933  0.81816020     0.07600
C249        C  0.72161397  0.19071852  0.83742147    -0.05500
H250        H  0.67004737  0.14800144  0.82422561     0.08300
H251        H  0.73902846  0.20484023  0.83380029     0.09500
Cu252      Cu  0.66120638  0.15896846  0.89049774     0.44200
Cu253      Cu  0.72023751  0.20507409  0.89901181     0.42000
Cu254      Cu  0.67592082  0.19006376  0.95728060     0.43900
N255        N  0.63665461  0.15270092  0.92480038    -0.34100
N256        N  0.64145306  0.16450473  0.94895686    -0.28400
C257        C  0.62342939  0.15358145  0.96727456    -0.04500
C258        C  0.60658379  0.13394593  0.95405784     0.07700
C259        C  0.61573591  0.13383839  0.92721028     0.01500
H260        H  0.62449275  0.15728463  0.98912729     0.09200
H261        H  0.60931798  0.11926013  0.91121342     0.08200
N262        N  0.71380632  0.21142071  0.96023848    -0.35600
N263        N  0.72958378  0.21711793  0.93877214    -0.27800
C264        C  0.75295627  0.22999805  0.94723566    -0.03000
C265        C  0.75229843  0.23220580  0.97555057     0.05600
C266        C  0.72691965  0.22046900  0.98301833     0.03700
H267        H  0.76917764  0.23720090  0.93358496     0.08800
H268        H  0.71887270  0.21801152  0.00357924     0.07600
N269        N  0.89541184  0.33508885  0.36473925    -0.26800
N270        N  0.91769696  0.35124851  0.36167494    -0.34600
C271        C  0.92187468  0.35595692  0.33482128     0.01600
C272        C  0.90113537  0.34223929  0.32016487     0.07600
C273        C  0.88486064  0.32901283  0.33988420    -0.05500
H274        H  0.93933968  0.36768273  0.32658901     0.08300
H275        H  0.86677534  0.31578767  0.33642904     0.09500
Cu276      Cu  0.94225499  0.36503620  0.39405984     0.44200
Cu277      Cu  0.88107424  0.32169694  0.40269255     0.42000
Cu278      Cu  0.92354847  0.33995522  0.46173643     0.43900
N279        N  0.96425353  0.37518193  0.42933107    -0.34100
N280        N  0.95799089  0.36508847  0.45387398    -0.28400
C281        C  0.97512925  0.37677543  0.47248278    -0.04500
C282        C  0.99281630  0.39534969  0.45907197     0.07700
C283        C  0.98534124  0.39387267  0.43175381     0.01500
H284        H  0.97342629  0.37367735  0.49438521     0.09200
H285        H  0.99367879  0.40650808  0.41510400     0.08200
N286        N  0.88593577  0.31879739  0.46436916    -0.35600
N287        N  0.87071318  0.31192564  0.44284842    -0.27800
C288        C  0.84787268  0.29811275  0.45142662    -0.03000
C289        C  0.84854472  0.29649673  0.47970654     0.05600
C290        C  0.87303428  0.30976013  0.48724273     0.03700
H291        H  0.83188189  0.28990615  0.43803578     0.08800
H292        H  0.88123098  0.31210373  0.50773204     0.07600
N293        N  0.71668050  0.19267468  0.65678944    -0.26800
N294        N  0.69439798  0.17627343  0.65811738    -0.34600
C295        C  0.69007378  0.16854022  0.68426292     0.01600
C296        C  0.71041910  0.18097458  0.70023807     0.07600
C297        C  0.72704114  0.19606065  0.68214153    -0.05500
H298        H  0.67293931  0.15545374  0.69122749     0.08300
H299        H  0.74527594  0.20856431  0.68698360     0.09500
Cu300      Cu  0.67048653  0.16577225  0.62452826     0.44200
Cu301      Cu  0.73153479  0.20942157  0.62042308     0.42000
Cu302      Cu  0.69251190  0.19077098  0.55836861     0.43900
N303        N  0.65083347  0.15477423  0.58847016    -0.34100
N304        N  0.65884079  0.16358479  0.56400239    -0.28400
C305        C  0.64394414  0.14967817  0.54483448    -0.04500
C306        C  0.62586190  0.13098309  0.55795530     0.07700
C307        C  0.63070417  0.13516791  0.58560131     0.01500
H308        H  0.64701839  0.15212772  0.52301949     0.09200
H309        H  0.62179878  0.12315746  0.60239527     0.08200
N310        N  0.72886381  0.21471498  0.55881951    -0.35600
N311        N  0.74276224  0.22158695  0.58122213    -0.27800
C312        C  0.76556834  0.23641032  0.57414932    -0.03000
C313        C  0.76630638  0.23867410  0.54593251     0.05600
C314        C  0.74259871  0.22487887  0.53690182     0.03700
H315        H  0.78085412  0.24431420  0.58847958     0.08800
H316        H  0.73575630  0.22239161  0.51594702     0.07600
N317        N  0.54940255  0.01527776  0.00806802    -0.02900
C318        C  0.55490169  0.04286796  0.01518195    -0.00400
C319        C  0.55985489  0.04471201  0.04295147    -0.23200
C320        C  0.55950705  0.01746200  0.05294747    -0.23400
C321        C  0.55424330  0.99948976  0.03107232    -0.00500
H322        H  0.56718801  0.06332226  0.05394359     0.13300
H323        H  0.56658378  0.01129511  0.07309335     0.13400
N324        N  0.53862451  0.00514840  0.98254818    -0.02900
C325        C  0.53767597  0.01962562  0.95824128    -0.00400
C326        C  0.53330399  0.00044376  0.93710294    -0.23200
C327        C  0.52887265  0.97425143  0.94869467    -0.23400
C328        C  0.53087052  0.97782397  0.97666655    -0.00500
H329        H  0.52884461  0.00562886  0.91597430     0.13300
H330        H  0.52130104  0.95551879  0.93806242     0.13400
N331        N  0.20507569  0.31735592  0.13118546    -0.26800
N332        N  0.18455893  0.33560095  0.13338058    -0.34600
C333        C  0.18009515  0.34115672  0.16004132     0.01600
C334        C  0.19859134  0.32563831  0.17559819     0.07600
C335        C  0.21421043  0.31086668  0.15647427    -0.05500
H336        H  0.16449372  0.35555550  0.16756257     0.08300
H337        H  0.23148248  0.29705404  0.16048541     0.09500
Cu338      Cu  0.16389784  0.35287787  0.10007153     0.44200
Cu339      Cu  0.21989329  0.30274822  0.09363104     0.42000
Cu340      Cu  0.18159218  0.32481717  0.03327098     0.43900
N341        N  0.14605047  0.36684676  0.06383411    -0.34100
N342        N  0.15165242  0.35573637  0.03956137    -0.28400
C343        C  0.13661039  0.36915525  0.02041249    -0.04500
C344        C  0.12114253  0.38995330  0.03319193     0.07700
C345        C  0.12763576  0.38792017  0.06070521     0.01500
H346        H  0.13754666  0.36475045  0.99867420     0.09200
H347        H  0.11958371  0.40080901  0.07721804     0.08200
N348        N  0.21622462  0.29883273  0.03182202    -0.35600
N349        N  0.23042048  0.29124401  0.05370900    -0.27800
C350        C  0.25265406  0.27637549  0.04563904    -0.03000
C351        C  0.25247844  0.27422630  0.01725539     0.05600
C352        C  0.22905474  0.28891572  0.00930368     0.03700
H353        H  0.26839742  0.26883869  0.05946407     0.08800
H354        H  0.22211959  0.29266803  0.98857264     0.07600
N355        N  0.39518998  0.19742795  0.83202539    -0.26800
N356        N  0.41720958  0.18106873  0.83059563    -0.34600
C357        C  0.42550696  0.17925450  0.80440665     0.01600
C358        C  0.40806199  0.19533481  0.78826822     0.07600
C359        C  0.38893618  0.20651138  0.80656698    -0.05500
H360        H  0.44321144  0.16722719  0.79762936     0.08300
H361        H  0.37145171  0.21976406  0.80177687     0.09500
Cu362      Cu  0.43569435  0.16200885  0.86406834     0.44200
Cu363      Cu  0.37545836  0.20631178  0.86911037     0.42000
Cu364      Cu  0.41084221  0.18025761  0.93098051     0.43900
N365        N  0.45261455  0.14587080  0.89973044    -0.34100
N366        N  0.44400286  0.15288437  0.92449442    -0.28400
C367        C  0.45848566  0.13800449  0.94310476    -0.04500
C368        C  0.47691733  0.12042526  0.92935688     0.07700
C369        C  0.47261886  0.12633510  0.90187008     0.01500
H370        H  0.45537299  0.13961870  0.96497077     0.09200
H371        H  0.48245224  0.11619257  0.88454815     0.08200
N372        N  0.37482014  0.20445830  0.93137837    -0.35600
N373        N  0.36176199  0.21320665  0.90917053    -0.27800
C374        C  0.33877214  0.22709124  0.91680997    -0.03000
C375        C  0.33728357  0.22753689  0.94524436     0.05600
C376        C  0.36050362  0.21274339  0.95363461     0.03700
H377        H  0.32392347  0.23551938  0.90251522     0.08800
H378        H  0.36658544  0.20823271  0.97448704     0.07600
N379        N  0.21164488  0.32309667  0.33861003    -0.26800
N380        N  0.18817150  0.33719617  0.33718551    -0.34600
C381        C  0.18193793  0.34183114  0.31074758     0.01600
C382        C  0.20240645  0.33009918  0.29455546     0.07600
C383        C  0.22078617  0.31810018  0.31293732    -0.05500
H384        H  0.16363413  0.35272702  0.30383138     0.08300
H385        H  0.23966697  0.30704371  0.30801071     0.09500
Cu386      Cu  0.16569370  0.35026451  0.37109251     0.44200
Cu387      Cu  0.23047809  0.31304245  0.37582337     0.42000
Cu388      Cu  0.19655536  0.34033217  0.43752441     0.43900
N389        N  0.14855532  0.36581159  0.40701983    -0.34100
N390        N  0.16008017  0.36276716  0.43135325    -0.28400
C391        C  0.14665397  0.37928872  0.44947622    -0.04500
C392        C  0.12554921  0.39333759  0.43596488     0.07700
C393        C  0.12745380  0.38413206  0.40906214     0.01500
H394        H  0.15316646  0.38261868  0.47043607     0.09200
H395        H  0.11629174  0.39246450  0.39168560     0.08200
N396        N  0.23427988  0.31914382  0.43768156    -0.35600
N397        N  0.24630804  0.30891585  0.41542887    -0.27800
C398        C  0.27028994  0.29669997  0.42263138    -0.03000
C399        C  0.27383489  0.29963953  0.45068436     0.05600
C400        C  0.25043453  0.31384598  0.45952388     0.03700
H401        H  0.28439853  0.28678707  0.40838480     0.08800
H402        H  0.24527628  0.31960271  0.48035842     0.07600
N403        N  0.41921461  0.21805336  0.62656038    -0.26800
N404        N  0.44029875  0.20046970  0.62835100    -0.34600
C405        C  0.44361372  0.19283156  0.65465812     0.01600
C406        C  0.42331341  0.20572309  0.67033957     0.07600
C407        C  0.40847019  0.22189716  0.65177155    -0.05500
H408        H  0.45957570  0.17865134  0.66166668     0.08300
H409        H  0.39051117  0.23469287  0.65610407     0.09500
Cu410      Cu  0.46195760  0.18482571  0.59487176     0.44200
Cu411      Cu  0.40473639  0.23392871  0.58946268     0.42000
Cu412      Cu  0.43744724  0.20529883  0.52805927     0.43900
N413        N  0.47789688  0.16844804  0.55866081    -0.34100
N414        N  0.46935378  0.17631575  0.53409975    -0.28400
C415        C  0.48268611  0.16084604  0.51503465    -0.04500
C416        C  0.50035455  0.14236831  0.52826155     0.07700
C417        C  0.49656684  0.14754901  0.55588843     0.01500
H418        H  0.47871771  0.16185359  0.49325445     0.09200
H419        H  0.50597498  0.13627662  0.57274228     0.08200
N420        N  0.40310927  0.23194902  0.52752645    -0.35600
N421        N  0.39150460  0.24266546  0.54977318    -0.27800
C422        C  0.36891300  0.25735780  0.54244880    -0.03000
C423        C  0.36576369  0.25548358  0.51428031     0.05600
C424        C  0.38807472  0.23944815  0.50553355     0.03700
H425        H  0.35497968  0.26745241  0.55674666     0.08800
H426        H  0.39280909  0.23317082  0.48474260     0.07600
N427        N  0.57026271  0.01207601  0.50471882    -0.02900
C428        C  0.57068234  0.02651172  0.52900987    -0.00400
C429        C  0.57558678  0.00768125  0.55018616    -0.23200
C430        C  0.58073299  0.98169121  0.53862760    -0.23400
C431        C  0.57870303  0.98505502  0.51061316    -0.00500
H432        H  0.57974845  0.01318132  0.57133072     0.13300
H433        H  0.58869310  0.96334408  0.54933623     0.13400
N434        N  0.55964088  0.02204772  0.47916981    -0.02900
C435        C  0.55389929  0.04948744  0.47190615    -0.00400
C436        C  0.55024032  0.05113228  0.44392166    -0.23200
C437        C  0.55140776  0.02392086  0.43393606    -0.23400
C438        C  0.55589820  0.00613400  0.45602930    -0.00500
H439        H  0.54326216  0.06950106  0.43257139     0.13300
H440        H  0.54513169  0.01757823  0.41353944     0.13400
C441        C  0.51581462  0.11864162  0.51574934     0.00400
C442        C  0.50590089  0.09082073  0.51938709    -0.11500
C443        C  0.51836843  0.06777603  0.50610641     0.02600
C444        C  0.54209761  0.07225677  0.48957196     0.00300
C445        C  0.55216069  0.10026112  0.48627956    -0.11400
C446        C  0.53920227  0.12333938  0.49910406     0.02500
H447        H  0.48758226  0.08723342  0.53181009     0.15500
H448        H  0.56988503  0.10414167  0.47312884     0.15500
C449        C  0.55004043  0.15168901  0.49470481     0.37100
C450        C  0.50488185  0.04042901  0.50858813     0.37000
N451        N  0.55866272  0.17445809  0.49117794    -0.43200
N452        N  0.49274919  0.01928521  0.51129096    -0.43200
C453        C  0.34234538  0.26657789  0.49769459     0.00400
C454        C  0.33122749  0.29329781  0.50419982    -0.11500
C455        C  0.30899925  0.30452202  0.48932810     0.02600
C456        C  0.29732833  0.28888597  0.46735435     0.00300
C457        C  0.30840111  0.26216054  0.46093539    -0.11400
C458        C  0.33037834  0.25080773  0.47597506     0.02500
H459        H  0.34018914  0.30567166  0.52077465     0.15500
H460        H  0.29934181  0.24968062  0.44448540     0.15500
C461        C  0.33893757  0.22217023  0.46971357     0.37100
C462        C  0.29942154  0.33260359  0.49640587     0.37000
N463        N  0.34560736  0.19912551  0.46478416    -0.43200
N464        N  0.29182966  0.35513335  0.50214466    -0.43200
C465        C  0.40981591  0.19831721  0.75789188     0.00400
C466        C  0.41922415  0.17493197  0.74267416    -0.11500
C467        C  0.42306779  0.17656979  0.71429405     0.02600
C468        C  0.41801413  0.20236910  0.70029690     0.00300
C469        C  0.40770088  0.22554078  0.71532760    -0.11400
C470        C  0.40352617  0.22375456  0.74379679     0.02500
H471        H  0.42335036  0.15497709  0.75298988     0.15500
H472        H  0.40352674  0.24543036  0.70492465     0.15500
C473        C  0.39398593  0.24878686  0.75797050     0.37100
C474        C  0.43099159  0.15089616  0.70014809     0.37000
N475        N  0.38625619  0.26896517  0.76912185    -0.43200
N476        N  0.43724834  0.13016744  0.68900384    -0.43200
C477        C  0.20149534  0.32643172  0.20602258     0.00400
C478        C  0.19603723  0.35210640  0.21972786    -0.11500
C479        C  0.19708812  0.35397592  0.24835270     0.02600
C480        C  0.20356729  0.32972939  0.26410735     0.00300
C481        C  0.20999486  0.30428450  0.25049387    -0.11400
C482        C  0.20882669  0.30235113  0.22177723     0.02500
H483        H  0.19105229  0.37097574  0.20801144     0.15500
H484        H  0.21489372  0.28550638  0.26239360     0.15500
C485        C  0.21356221  0.27493453  0.20935409     0.37100
C486        C  0.19235330  0.38135076  0.26091321     0.37000
N487        N  0.21730340  0.25285079  0.19956141    -0.43200
N488        N  0.18866362  0.40336287  0.27087101    -0.43200
C489        C  0.27394013  0.26160042  0.99899062     0.00400
C490        C  0.27935585  0.27447307  0.97352897    -0.11500
C491        C  0.29977825  0.26404449  0.95580188     0.02600
C492        C  0.31524225  0.23976859  0.96316547     0.00300
C493        C  0.30967500  0.22680198  0.98858340    -0.11400
C494        C  0.28934517  0.23733437  0.00636071     0.02500
H495        H  0.26807435  0.29334605  0.96766579     0.15500
H496        H  0.32095071  0.20795382  0.99451123     0.15500
C497        C  0.28412365  0.22198746  0.03148078     0.37100
C498        C  0.30515450  0.27975424  0.93092897     0.37000
N499        N  0.28005860  0.20957608  0.05158644    -0.43200
N500        N  0.30929286  0.29256853  0.91107174    -0.43200
C501        C  0.49512954  0.09763446  0.94042125     0.00400
C502        C  0.51933355  0.09070958  0.92589493    -0.11500
C503        C  0.53479527  0.06654123  0.93259886     0.02600
C504        C  0.52653005  0.04892459  0.95461301     0.00300
C505        C  0.50343065  0.05684138  0.97011483    -0.11400
C506        C  0.48768080  0.08070278  0.96327847     0.02500
H507        H  0.52566662  0.10360617  0.90855072     0.15500
H508        H  0.49654918  0.04325271  0.98644583     0.15500
C509        C  0.46256754  0.08521274  0.97859877     0.37100
C510        C  0.55845235  0.05964306  0.91589503     0.37000
N511        N  0.44241662  0.08846396  0.99096750    -0.43200
N512        N  0.57736536  0.05407232  0.90245170    -0.43200
C513        C  0.60884998  0.10743565  0.54627521     0.00400
C514        C  0.58447511  0.09937548  0.56009250    -0.11500
C515        C  0.57054711  0.07396433  0.55363748     0.02600
C516        C  0.58053383  0.05636589  0.53246589     0.00300
C517        C  0.60381439  0.06532124  0.51755824    -0.11400
C518        C  0.61810241  0.09041262  0.52424453     0.02500
H519        H  0.57698577  0.11231466  0.57689485     0.15500
H520        H  0.61204734  0.05161575  0.50190065     0.15500
C521        C  0.64368994  0.09618275  0.50996297     0.37100
C522        C  0.54665237  0.06587175  0.56967239     0.37000
N523        N  0.66425353  0.10045035  0.49847137    -0.43200
N524        N  0.52746784  0.05941424  0.58249883    -0.43200
C525        C  0.78794071  0.25282232  0.52919567     0.00400
C526        C  0.79906220  0.27893570  0.53815079    -0.11500
C527        C  0.81893590  0.29355552  0.52253115     0.02600
C528        C  0.82812848  0.28186532  0.49749328     0.00300
C529        C  0.81735306  0.25553948  0.48882573    -0.11400
C530        C  0.79763675  0.24087713  0.50447448     0.02500
H531        H  0.79168806  0.28831046  0.55708319     0.15500
H532        H  0.82471672  0.24612754  0.46990432     0.15500
C533        C  0.78880865  0.21301794  0.49529852     0.37100
C534        C  0.82834971  0.32112116  0.53197381     0.37000
N535        N  0.78189632  0.19062908  0.48795637    -0.43200
N536        N  0.83574594  0.34325082  0.53959210    -0.43200
C537        C  0.59110386  0.11066622  0.96757310     0.00400
C538        C  0.60227469  0.08333079  0.96645003    -0.11500
C539        C  0.59056734  0.06088406  0.98134430     0.02600
C540        C  0.56631040  0.06528493  0.99689139     0.00300
C541        C  0.55503106  0.09275574  0.99794490    -0.11400
C542        C  0.56719885  0.11539524  0.98337641     0.02500
H543        H  0.62117642  0.07985333  0.95497788     0.15500
H544        H  0.53685415  0.09652633  0.01040755     0.15500
C545        C  0.55484727  0.14318540  0.98488031     0.37100
C546        C  0.60576204  0.03466604  0.98228423     0.37000
N547        N  0.54484581  0.16543681  0.98606050    -0.43200
N548        N  0.61931189  0.01452220  0.98272992    -0.43200
C549        C  0.71257672  0.17932762  0.73038635     0.00400
C550        C  0.70858708  0.15283970  0.74315539    -0.11500
C551        C  0.70809034  0.15053087  0.77174195     0.02600
C552        C  0.71127531  0.17516467  0.78806939     0.00300
C553        C  0.71635766  0.20146924  0.77528867    -0.11400
C554        C  0.71688189  0.20378281  0.74671130     0.02500
H555        H  0.70570886  0.13389068  0.73072333     0.15500
H556        H  0.71861725  0.22055228  0.78763779     0.15500
C557        C  0.71968566  0.23179969  0.73480923     0.37100
C558        C  0.70496457  0.12258780  0.78373823     0.37000
N559        N  0.72177463  0.25429066  0.72531232    -0.43200
N560        N  0.70261021  0.10013452  0.79326509    -0.43200
C561        C  0.89849577  0.34007966  0.28988097     0.00400
C562        C  0.89004721  0.31410019  0.27809793    -0.11500
C563        C  0.88968925  0.31036471  0.24954442     0.02600
C564        C  0.89784485  0.33301243  0.23215481     0.00300
C565        C  0.90509836  0.35930517  0.24398713    -0.11400
C566        C  0.90528492  0.36308378  0.27242261     0.02500
H567        H  0.88469317  0.29626983  0.29123943     0.15500
H568        H  0.91059127  0.37715188  0.23091661     0.15500
C569        C  0.91164123  0.39111433  0.28297037     0.37100
C570        C  0.88242344  0.28261594  0.23890294     0.37000
N571        N  0.91664664  0.41365205  0.29130132    -0.43200
N572        N  0.87657398  0.26029521  0.23055019    -0.43200
C573        C  0.81361993  0.27061871  0.02893196     0.00400
C574        C  0.82183923  0.25628220  0.00508331    -0.11500
C575        C  0.80247797  0.24295160  0.98790242     0.02600
C576        C  0.77389834  0.24456811  0.99392217     0.00300
C577        C  0.76570486  0.25855631  0.01803187    -0.11400
C578        C  0.78516824  0.27140179  0.03552097     0.02500
H579        H  0.84364712  0.25488003  0.00015041     0.15500
H580        H  0.74391956  0.26000395  0.02300796     0.15500
C581        C  0.77514168  0.28622445  0.05940943     0.37100
C582        C  0.81285795  0.22645033  0.96520943     0.37000
N583        N  0.76696493  0.29802184  0.07855823    -0.43200
N584        N  0.82135459  0.21310842  0.94717341    -0.43200
C585        C  0.01117603  0.41655359  0.47219485     0.00400
C586        C  0.03288709  0.40721533  0.48883997    -0.11500
C587        C  0.04971307  0.42680556  0.50288710     0.02600
C588        C  0.04455998  0.45627098  0.50067929     0.00300
C589        C  0.02257876  0.46546520  0.48423742    -0.11400
C590        C  0.00621880  0.44597500  0.46973735     0.02500
H591        H  0.03665685  0.38458866  0.49087133     0.15500
H592        H  0.01786383  0.48795285  0.48304326     0.15500
C593        C  0.98377747  0.45667887  0.45337025     0.37100
C594        C  0.07204932  0.41626941  0.51948922     0.37000
N595        N  0.96582033  0.46524847  0.44020584    -0.43200
N596        N  0.08992513  0.40790915  0.53288903    -0.43200
C597        C  0.08680249  0.47235891  0.45856401     0.00400
C598        C  0.07214084  0.45204171  0.44306004    -0.11500
C599        C  0.08354631  0.42537913  0.43702515     0.02600
C600        C  0.11069296  0.41906404  0.44553447     0.00300
C601        C  0.12556088  0.43962925  0.46041934    -0.11400
C602        C  0.11432981  0.46636173  0.46602139     0.02500
H603        H  0.05184209  0.45720423  0.43528580     0.15500
H604        H  0.14698565  0.43577731  0.46560543     0.15500
C605        C  0.13320435  0.48857489  0.47454254     0.37100
C606        C  0.06693958  0.40489981  0.42217847     0.37000
N607        N  0.14919610  0.50612327  0.48004342    -0.43200
N608        N  0.05354213  0.38846365  0.41038314    -0.43200
C609        C  0.51820597  0.95654623  0.99570247     0.00400
C610        C  0.52502039  0.92773329  0.99204235    -0.11500
C611        C  0.51162627  0.90617527  0.00695237     0.02600
C612        C  0.49070399  0.91319007  0.02579687     0.00300
C613        C  0.48437752  0.94185987  0.03015061    -0.11400
C614        C  0.49767402  0.96350962  0.01528002     0.02500
H615        H  0.54085293  0.92205425  0.97731648     0.15500
H616        H  0.46829755  0.94732958  0.04469960     0.15500
C617        C  0.48897621  0.99226097  0.02054071     0.37100
C618        C  0.52013611  0.87709314  0.00302912     0.37000
N619        N  0.48129500  0.01475898  0.02621789    -0.43200
N620        N  0.52710166  0.85379782  0.00000610    -0.43200
C621        C  0.32204249  0.75597680  0.01482678     0.00400
C622        C  0.29520965  0.75368650  0.02575037    -0.11500
C623        C  0.27344480  0.74164350  0.01060003     0.02600
C624        C  0.27822304  0.73157128  0.98372202     0.00300
C625        C  0.30516813  0.73325090  0.97303029    -0.11400
C626        C  0.32699565  0.74499308  0.98828903     0.02500
H627        H  0.29094051  0.76206987  0.04600025     0.15500
H628        H  0.30931985  0.72502172  0.95268562     0.15500
C629        C  0.35435601  0.74432525  0.97648738     0.37100
C630        C  0.24625418  0.74129948  0.02279430     0.37000
N631        N  0.37624327  0.74362592  0.96692908    -0.43200
N632        N  0.22452153  0.74104182  0.03272848    -0.43200
C633        C  0.11545386  0.61132127  0.52773796     0.00400
C634        C  0.12133723  0.58298703  0.53414459    -0.11500
C635        C  0.10902414  0.56045251  0.51976179     0.02600
C636        C  0.08962363  0.56614791  0.49873635     0.00300
C637        C  0.08312976  0.59470526  0.49308022    -0.11400
C638        C  0.09598048  0.61717819  0.50715526     0.02500
H639        H  0.13635901  0.57841995  0.54998473     0.15500
H640        H  0.06834938  0.59949890  0.47709296     0.15500
C641        C  0.08878734  0.64603423  0.50018042     0.37100
C642        C  0.11712975  0.53209050  0.52742614     0.37000
N643        N  0.08308374  0.66918246  0.49457702    -0.43200
N644        N  0.12356514  0.50968038  0.53476320    -0.43200
C645        C  0.20243498  0.69594304  0.71835134     0.00400
C646        C  0.19468631  0.67047013  0.73148651    -0.11500
C647        C  0.19232853  0.66889678  0.75999309     0.02600
C648        C  0.19756039  0.69329258  0.77615818     0.00300
C649        C  0.20639109  0.71848564  0.76325170    -0.11400
C650        C  0.20875384  0.72008891  0.73463048     0.02500
H651        H  0.19055551  0.65150763  0.71943046     0.15500
H652        H  0.21056814  0.73729928  0.77552009     0.15500
C653        C  0.21624915  0.74719915  0.72272717     0.37100
C654        C  0.18554629  0.64163458  0.77205739     0.37000
N655        N  0.22229863  0.76903936  0.71340056    -0.43200
N656        N  0.18020599  0.61972777  0.78164414    -0.43200
C657        C  0.51092850  0.92781992  0.44665099     0.00400
C658        C  0.53299941  0.93412762  0.42881205    -0.11500
C659        C  0.54979366  0.95819275  0.43283712     0.02600
C660        C  0.54488018  0.97638132  0.45530820     0.00300
C661        C  0.52513301  0.96807836  0.47486190    -0.11400
C662        C  0.50784753  0.94441792  0.47061392     0.02500
H663        H  0.53628259  0.92101220  0.41082724     0.15500
H664        H  0.52193880  0.98117883  0.49268543     0.15500
C665        C  0.48546528  0.93986813  0.48973732     0.37100
C666        C  0.57137548  0.96421458  0.41316946     0.37000
N667        N  0.46750424  0.93662620  0.50514324    -0.43200
N668        N  0.58870503  0.96895613  0.39741202    -0.43200
C669        C  0.39726354  0.84024457  0.27339002     0.00400
C670        C  0.39667979  0.81279640  0.26197320    -0.11500
C671        C  0.39737838  0.80881992  0.23349109     0.02600
C672        C  0.39843155  0.83269027  0.21589277     0.00300
C673        C  0.39812513  0.86010708  0.22738556    -0.11400
C674        C  0.39738014  0.86406079  0.25578434     0.02500
H675        H  0.39674055  0.79437581  0.27536399     0.15500
H676        H  0.39832037  0.87860086  0.21408594     0.15500
C677        C  0.39573332  0.89276625  0.26624433     0.37100
C678        C  0.39877393  0.78009624  0.22308655     0.37000
N679        N  0.39422039  0.91579369  0.27453036    -0.43200
N680        N  0.39999029  0.75700231  0.21491759    -0.43200
C681        C  0.32786650  0.78780383  0.48249169     0.00400
C682        C  0.31542756  0.76222404  0.47380746    -0.11500
C683        C  0.29528162  0.74844301  0.48970524     0.02600
C684        C  0.28690971  0.76039454  0.51494939     0.00300
C685        C  0.29949639  0.78583977  0.52379636    -0.11400
C686        C  0.31962404  0.79968986  0.50781568     0.02500
H687        H  0.32181347  0.75259704  0.45464289     0.15500
H688        H  0.29306122  0.79538424  0.54298487     0.15500
C689        C  0.33022155  0.82675910  0.51733494     0.37100
C690        C  0.28462370  0.72143928  0.48003405     0.37000
N691        N  0.33853827  0.84849587  0.52508315    -0.43200
N692        N  0.27622860  0.69979136  0.47213677    -0.43200
C693        C  0.99727791  0.41132060  0.04650285     0.00400
C694        C  0.02032873  0.42052100  0.06186818    -0.11500
C695        C  0.03461201  0.44576422  0.05533548     0.02600
C696        C  0.02617162  0.46233735  0.03282444     0.00300
C697        C  0.00484998  0.45188683  0.01614425    -0.11400
C698        C  0.99049858  0.42670667  0.02252699     0.02500
H699        H  0.02655897  0.40860877  0.07978991     0.15500
H700        H  0.99835992  0.46423678  0.99884897     0.15500
C701        C  0.96779722  0.41884124  0.00488260     0.37100
C702        C  0.05729867  0.45471034  0.07257433     0.37000
N703        N  0.94978446  0.41292502  0.99032174    -0.43200
N704        N  0.07549969  0.46188701  0.08636807    -0.43200
C705        C  0.06372976  0.54030721  0.95490785     0.00400
C706        C  0.08623530  0.54641885  0.97209379    -0.11500
C707        C  0.10280088  0.57073366  0.96802094     0.02600
C708        C  0.09623287  0.59031341  0.94696319     0.00300
C709        C  0.07259291  0.58489223  0.93092605    -0.11400
C710        C  0.05687002  0.55994420  0.93423863     0.02500
H711        H  0.09213955  0.53104273  0.98752763     0.15500
H712        H  0.06687100  0.59968288  0.91492389     0.15500
C713        C  0.03431032  0.55453726  0.91557897     0.37100
C714        C  0.12776933  0.57310137  0.98400055     0.37000
N715        N  0.01628719  0.55015572  0.90056303    -0.43200
N716        N  0.14785024  0.57449482  0.99679846    -0.43200
C717        C  0.06769760  0.44833823  0.99123605     0.00400
C718        C  0.08925547  0.45876393  0.00782313    -0.11500
C719        C  0.10642924  0.44015409  0.02222835     0.02600
C720        C  0.10240100  0.41045696  0.01989094     0.00300
C721        C  0.08070516  0.40000710  0.00362468    -0.11400
C722        C  0.06332302  0.41861149  0.98947854     0.02500
H723        H  0.09328825  0.48148485  0.00881482     0.15500
H724        H  0.07742798  0.37720169  0.00186866     0.15500
C725        C  0.04113569  0.40671903  0.97325594     0.37100
C726        C  0.12907415  0.45200728  0.03786335     0.37000
N727        N  0.02329634  0.39721225  0.96030118    -0.43200
N728        N  0.14726747  0.46155925  0.05030211    -0.43200
C729        C  0.62051806  0.92118021  0.46234746     0.00400
C730        C  0.62557594  0.95009671  0.45709889    -0.11500
C731        C  0.61187335  0.97142588  0.47180426     0.02600
C732        C  0.59168256  0.96394954  0.49167106     0.00300
C733        C  0.58609822  0.93485543  0.49621933    -0.11400
C734        C  0.60038712  0.91359486  0.48200641     0.02500
H735        H  0.64121878  0.95608118  0.44217558     0.15500
H736        H  0.57079888  0.92869605  0.51141750     0.15500
C737        C  0.59387138  0.88417176  0.48788330     0.37100
C738        C  0.62015366  0.00046480  0.46653182     0.37000
N739        N  0.58861894  0.86060661  0.49268461    -0.43200
N740        N  0.62742657  0.02332826  0.46117746    -0.43200
C741        C  0.00797981  0.59675459  0.54312731     0.00400
C742        C  0.03084810  0.59203870  0.56022883    -0.11500
C743        C  0.04790632  0.56846066  0.55660676     0.02600
C744        C  0.04296998  0.54928214  0.53484585     0.00300
C745        C  0.02163735  0.55519057  0.51629636    -0.11400
C746        C  0.00403501  0.57847509  0.52030422     0.02500
H747        H  0.03482374  0.60618626  0.57735749     0.15500
H748        H  0.01744751  0.54040920  0.49970798     0.15500
C749        C  0.98087796  0.58126840  0.50197432     0.37100
C750        C  0.06968355  0.56382744  0.57625452     0.37000
N751        N  0.96236684  0.58316010  0.48712472    -0.43200
N752        N  0.08706775  0.56011175  0.59206584    -0.43200
C753        C  0.82909562  0.74071018  0.50848524     0.00400
C754        C  0.82006501  0.76791214  0.51618017    -0.11500
C755        C  0.80132167  0.78298875  0.50004640     0.02600
C756        C  0.79090078  0.77073546  0.47569013     0.00300
C757        C  0.80016354  0.74370828  0.46775216    -0.11400
C758        C  0.81890179  0.72857227  0.48394058     0.02500
H759        H  0.82807119  0.77773018  0.53468547     0.15500
H760        H  0.79213141  0.73401205  0.44919431     0.15500
C761        C  0.82602237  0.70008111  0.47557147     0.37100
C762        C  0.79424261  0.81152449  0.50835095     0.37000
N763        N  0.83158419  0.67720664  0.46882959    -0.43200
N764        N  0.78870136  0.83443524  0.51499268    -0.43200
C765        C  0.01664364  0.55480194  0.99106323     0.00400
C766        C  0.02323275  0.58387642  0.99424594    -0.11500
C767        C  0.00885460  0.60493080  0.97988217     0.02600
C768        C  0.98743482  0.59709656  0.96179409     0.00300
C769        C  0.98140078  0.56818758  0.95784943    -0.11400
C770        C  0.99540234  0.54709802  0.97244397     0.02500
H771        H  0.03935144  0.59017780  0.00848402     0.15500
H772        H  0.96485339  0.56207308  0.94400902     0.15500
C773        C  0.98634442  0.51811574  0.96828563     0.37100
C774        C  0.01657396  0.63439793  0.98384791     0.37000
N775        N  0.97821081  0.49539285  0.96363605    -0.43200
N776        N  0.02277380  0.65803709  0.98694478    -0.43200
C777        C  0.89480828  0.68232976  0.77395592     0.00400
C778        C  0.89346460  0.70931883  0.76157950    -0.11500
C779        C  0.89618874  0.71242728  0.73311938     0.02600
C780        C  0.90041958  0.68821168  0.71658610     0.00300
C781        C  0.90077479  0.66121959  0.72881917    -0.11400
C782        C  0.89766079  0.65803767  0.75712859     0.02500
H783        H  0.89126888  0.72815343  0.77422649     0.15500
H784        H  0.90330083  0.64245024  0.71612284     0.15500
C785        C  0.89643810  0.62951213  0.76810451     0.37100
C786        C  0.89621235  0.74074759  0.72163493     0.37000
N787        N  0.89532215  0.60659245  0.77675639    -0.43200
N788        N  0.89630184  0.76347752  0.71248970    -0.43200
C789        C  0.59604802  0.91961959  0.04054611     0.00400
C790        C  0.57387828  0.92657899  0.05796621    -0.11500
C791        C  0.55852883  0.95138310  0.05405472     0.02600
C792        C  0.56463102  0.96963942  0.03187567     0.00300
C793        C  0.58442775  0.96097789  0.01266611    -0.11400
C794        C  0.60042882  0.93659884  0.01689555     0.02500
H795        H  0.56917015  0.91323738  0.07550122     0.15500
H796        H  0.58840807  0.97409804  0.99494218     0.15500
C797        C  0.62246691  0.93134415  0.99766942     0.37100
C798        C  0.53685600  0.95789032  0.07336307     0.37000
N799        N  0.64008098  0.92759382  0.98204199    -0.43200
N800        N  0.51938002  0.96305043  0.08874224    -0.43200
C801        C  0.69639602  0.82170636  0.21595267     0.00400
C802        C  0.72301474  0.82031560  0.22734388    -0.11500
C803        C  0.72713247  0.82291797  0.25569384     0.02600
C804        C  0.70429746  0.82723384  0.27325547     0.00300
C805        C  0.67765497  0.82741944  0.26198424    -0.11400
C806        C  0.67348168  0.82425242  0.23379100     0.02500
H807        H  0.74082118  0.81821798  0.21401502     0.15500
H808        H  0.65988006  0.82971135  0.27534424     0.15500
C809        C  0.64535950  0.82256926  0.22405041     0.37100
C810        C  0.75510463  0.82257269  0.26589581     0.37000
N811        N  0.62276265  0.82109268  0.21641814    -0.43200
N812        N  0.77757053  0.82221032  0.27396696    -0.43200
C813        C  0.77582232  0.77695575  0.00772652     0.00400
C814        C  0.80308384  0.77618435  0.01752677    -0.11500
C815        C  0.82436502  0.76410876  0.00201414     0.02600
C816        C  0.81853361  0.75191587  0.97615764     0.00300
C817        C  0.79134965  0.75312284  0.96613054    -0.11400
C818        C  0.77008921  0.76541638  0.98156484     0.02500
H819        H  0.80793411  0.78549012  0.03730044     0.15500
H820        H  0.78645397  0.74372714  0.94641223     0.15500
C821        C  0.74244468  0.76450581  0.97051703     0.37100
C822        C  0.85212120  0.76576326  0.01271560     0.37000
N823        N  0.72033802  0.76369521  0.96152490    -0.43200
N824        N  0.87434698  0.76725111  0.02134532    -0.43200
loop_ 
_geom_bond_atom_site_label_1 
_geom_bond_atom_site_label_2 
_geom_bond_distance 
_geom_bond_site_symmetry_2 
_ccdc_geom_bond_type 
N1            N2   1.320       .  A
N1            C5   1.348       .  A
N1           Cu9   2.078       .  S
N2            C3   1.342       .  A
N2           Cu8   2.068       .  S
C3            C4   1.386       .  A
C3            H6   1.081       .  S
C4            C5   1.389       .  A
C4          C801   1.489       .  S
C5            H7   1.082       .  S
Cu8          N11   2.069       .  S
Cu9          N19   2.079       .  S
Cu10         N12   2.086       .  S
Cu10         N18   2.087       .  S
N11          N12   1.320       .  A
N11          C15   1.342       .  A
N12          C13   1.348       .  A
C13          C14   1.394       .  A
C13          H16   1.079       .  S
C14          C15   1.388       .  A
C14         C789   1.498       .  S
C15          H17   1.082       .  S
N18          N19   1.324       .  A
N18          C22   1.347       .  A
N19          C20   1.344       .  A
C20          C21   1.385       .  A
C20          H23   1.082       .  S
C21          C22   1.388       .  A
C21         C813   1.488       .  S
C22          H24   1.081   1_554  S
N25          N26   1.322       .  A
N25          C29   1.346       .  A
N25         Cu33   2.071       .  S
N26          C27   1.343       .  A
N26         Cu32   2.074       .  S
C27          C28   1.386       .  A
C27          H30   1.081       .  S
C28          C29   1.385       .  A
C28         C777   1.484       .  S
C29          H31   1.082       .  S
Cu32         N35   2.074       .  S
Cu33         N43   2.072       .  S
Cu34         N36   2.084       .  S
Cu34         N42   2.084       .  S
N35          N36   1.322       .  A
N35          C39   1.346       .  A
N36          C37   1.347       .  A
C37          C38   1.385       .  A
C37          H40   1.082       .  S
C38          C39   1.384       .  A
C38         C768   1.481       .  S
C39          H41   1.082       .  S
N42          N43   1.322       .  A
N42          C46   1.346       .  A
N43          C44   1.345       .  A
C44          C45   1.386       .  A
C44          H47   1.082       .  S
C45          C46   1.389       .  A
C45         C816   1.489       .  S
C46          H48   1.081       .  S
N49          N50   1.321       .  A
N49          C53   1.347       .  A
N49         Cu57   2.073       .  S
N50          C51   1.342       .  A
N50         Cu56   2.067       .  S
C51          C52   1.382       .  A
C51          H54   1.082       .  S
C52          C53   1.385       .  A
C52         C780   1.478       .  S
C53          H55   1.082       .  S
Cu56         N59   2.068       .  S
Cu57         N67   2.075       .  S
Cu58         N60   2.086       .  S
Cu58         N66   2.086       .  S
N59          N60   1.320       .  A
N59          C63   1.341       .  A
N60          C61   1.349       .  A
C61          C62   1.393       .  A
C61          H64   1.080       .  S
C62          C63   1.387       .  A
C62         C741   1.496   1_655  S
C63          H65   1.082       .  S
N66          N67   1.324       .  A
N66          C70   1.346       .  A
N67          C68   1.344       .  A
C68          C69   1.384       .  A
C68          H71   1.082       .  S
C69          C70   1.387       .  A
C69         C753   1.486       .  S
C70          H72   1.081       .  S
N73          N74   1.322       .  A
N73          C77   1.346       .  A
N73         Cu81   2.073       .  S
N74          C75   1.344       .  A
N74         Cu80   2.081       .  S
C75          C76   1.386       .  A
C75          H78   1.082       .  S
C76          C77   1.385       .  A
C76         C804   1.485       .  S
C77          H79   1.082       .  S
Cu80         N83   2.081       .  S
Cu81         N91   2.073       .  S
Cu82         N84   2.080       .  S
Cu82         N90   2.080       .  S
N83          N84   1.322       .  A
N83          C87   1.347       .  A
N84          C85   1.347       .  A
C85          C86   1.386       .  A
C85          H88   1.082       .  S
C86          C87   1.385       .  A
C86         C729   1.484       .  S
C87          H89   1.082       .  S
N90          N91   1.322       .  A
N90          C94   1.344       .  A
N91          C92   1.346       .  A
C92          C93   1.385       .  A
C92          H95   1.082       .  S
C93          C94   1.385       .  A
C93         C756   1.484       .  S
C94          H96   1.082       .  S
N97         C101   1.363       .  A
N97          C98   1.362       .  A
N97         N104   1.429   1_556  S
C98          C99   1.381       .  A
C98         C705   1.488       .  S
C99         C100   1.371       .  A
C99         H102   1.082       .  S
C100        C101   1.383       .  A
C100        H103   1.082       .  S
C101        C717   1.489       .  S
N104        C108   1.366       .  A
N104        C105   1.368       .  A
C105        C106   1.384       .  A
C105        C696   1.492       .  S
C106        C107   1.370       .  A
C106        H109   1.082       .  S
C107        C108   1.380       .  A
C107        H110   1.083       .  S
C108        C765   1.494   1_554  S
N111        N112   1.320       .  A
N111        C115   1.346       .  A
N111       Cu119   2.073       .  S
N112        C113   1.343       .  A
N112       Cu118   2.067       .  S
C113        C114   1.384       .  A
C113        H116   1.082       .  S
C114        C115   1.385       .  A
C114        C669   1.481       .  S
C115        H117   1.082       .  S
Cu118       N121   2.067       .  S
Cu119       N129   2.074       .  S
Cu120       N122   2.081       .  S
Cu120       N128   2.082       .  S
N121        N122   1.321       .  A
N121        C125   1.341       .  A
N122        C123   1.348       .  A
C123        C124   1.390       .  A
C123        H126   1.081       .  S
C124        C125   1.384       .  A
C124        C657   1.487       .  S
C125        H127   1.082       .  S
N128        N129   1.323       .  A
N128        C132   1.346       .  A
N129        C130   1.343       .  A
C130        C131   1.384       .  A
C130        H133   1.082       .  S
C131        C132   1.387       .  A
C131        C681   1.486       .  S
C132        H134   1.081       .  S
N135        N136   1.321       .  A
N135        C139   1.347       .  A
N135       Cu143   2.080       .  S
N136        C137   1.341       .  A
N136       Cu142   2.067       .  S
C137        C138   1.385       .  A
C137        H140   1.082       .  S
C138        C139   1.389       .  A
C138        C645   1.488       .  S
C139        H141   1.081       .  S
Cu142       N145   2.067       .  S
Cu143       N153   2.081       .  S
Cu144       N146   2.070       .  S
Cu144       N152   2.071       .  S
N145        N146   1.321       .  A
N145        C149   1.344       .  A
N146        C147   1.345       .  A
C147        C148   1.384       .  A
C147        H150   1.082       .  S
C148        C149   1.383       .  A
C148        C633   1.477       .  S
C149        H151   1.082       .  S
N152        N153   1.322       .  A
N152        C156   1.343       .  A
N153        C154   1.346       .  A
C154        C155   1.387       .  A
C154        H157   1.082       .  S
C155        C156   1.384       .  A
C155        C684   1.485       .  S
C156        H158   1.081       .  S
N159        N160   1.322       .  A
N159        C163   1.348       .  A
N159       Cu167   2.082       .  S
N160        C161   1.342       .  A
N160       Cu166   2.070       .  S
C161        C162   1.383       .  A
C161        H164   1.082       .  S
C162        C163   1.387       .  A
C162        C672   1.484       .  S
C163        H165   1.082       .  S
Cu166       N169   2.070       .  S
Cu167       N177   2.082       .  S
Cu168       N170   2.079       .  S
Cu168       N176   2.080       .  S
N169        N170   1.322       .  A
N169        C173   1.345       .  A
N170        C171   1.346       .  A
C171        C172   1.385       .  A
C171        H174   1.082       .  S
C172        C173   1.383       .  A
C172        C612   1.478       .  S
C173        H175   1.082       .  S
N176        N177   1.322       .  A
N176        C180   1.345       .  A
N177        C178   1.346       .  A
C178        C179   1.388       .  A
C178        H181   1.082       .  S
C179        C180   1.388       .  A
C179        C621   1.492       .  S
C180        H182   1.081       .  S
N183        N184   1.321       .  A
N183        C187   1.347       .  A
N183       Cu191   2.075       .  S
N184        C185   1.342       .  A
N184       Cu190   2.067       .  S
C185        C186   1.384       .  A
C185        H188   1.082       .  S
C186        C187   1.386       .  A
C186        C648   1.483       .  S
C187        H189   1.082       .  S
Cu190       N193   2.068       .  S
Cu191       N201   2.076       .  S
Cu192       N194   2.087       .  S
Cu192       N200   2.087       .  S
N193        N194   1.320       .  A
N193        C197   1.342       .  A
N194        C195   1.348       .  A
C195        C196   1.393       .  A
C195        H198   1.080       .  S
C196        C197   1.387       .  A
C196        C708   1.496       .  S
C197        H199   1.082       .  S
N200        N201   1.323       .  A
N200        C204   1.347       .  A
N201        C202   1.344       .  A
C202        C203   1.385       .  A
C202        H205   1.082       .  S
C203        C204   1.389       .  A
C203        C624   1.489       .  S
C204        H206   1.081       .  S
N207        C211   1.364       .  A
N207        C208   1.370       .  A
N207        N214   1.432       .  S
C208        C209   1.380       .  A
C208        C597   1.488       .  S
C209        C210   1.369       .  A
C209        H212   1.083       .  S
C210        C211   1.383       .  A
C210        H213   1.082       .  S
C211        C636   1.493       .  S
N214        C218   1.362       .  A
N214        C215   1.365       .  A
C215        C216   1.381       .  A
C215        C744   1.490       .  S
C216        C217   1.369       .  A
C216        H219   1.082       .  S
C217        C218   1.383       .  A
C217        H220   1.083       .  S
C218        C588   1.482       .  S
N221        N222   1.321       .  A
N221        C225   1.349       .  A
N221       Cu229   2.083       .  S
N222        C223   1.342       .  A
N222       Cu228   2.072       .  S
C223        C224   1.385       .  A
C223        H226   1.082       .  S
C224        C225   1.389       .  A
C224        C564   1.488       .  S
C225        H227   1.081       .  S
Cu228       N231   2.071       .  S
Cu229       N239   2.084       .  S
Cu230       N232   2.087       .  S
Cu230       N238   2.088       .  S
N231        N232   1.320       .  A
N231        C235   1.343       .  A
N232        C233   1.347       .  A
C233        C234   1.393       .  A
C233        H236   1.079       .  S
C234        C235   1.388       .  A
C234        C693   1.496       .  S
C235        H237   1.082       .  S
N238        N239   1.324       .  A
N238        C242   1.346       .  A
N239        C240   1.347       .  A
C240        C241   1.386       .  A
C240        H243   1.081       .  S
C241        C242   1.387       .  A
C241        C573   1.489       .  S
C242        H244   1.082       .  S
N245        N246   1.321       .  A
N245        C249   1.344       .  A
N245       Cu253   2.070       .  S
N246        C247   1.344       .  A
N246       Cu252   2.070       .  S
C247        C248   1.385       .  A
C247        H250   1.082       .  S
C248        C249   1.384       .  A
C248        C552   1.480       .  S
C249        H251   1.082       .  S
Cu252       N255   2.071       .  S
Cu253       N263   2.071       .  S
Cu254       N256   2.086       .  S
Cu254       N262   2.087       .  S
N255        N256   1.323       .  A
N255        C259   1.344       .  A
N256        C257   1.346       .  A
C257        C258   1.385       .  A
C257        H260   1.082       .  S
C258        C259   1.383       .  A
C258        C537   1.475       .  S
C259        H261   1.082       .  S
N262        N263   1.322       .  A
N262        C266   1.348       .  A
N263        C264   1.343       .  A
C264        C265   1.386       .  A
C264        H267   1.081       .  S
C265        C266   1.390       .  A
C265        C576   1.492       .  S
C266        H268   1.082   1_556  S
N269        N270   1.321       .  A
N269        C273   1.347       .  A
N269       Cu277   2.073       .  S
N270        C271   1.344       .  A
N270       Cu276   2.079       .  S
C271        C272   1.387       .  A
C271        H274   1.081       .  S
C272        C273   1.386       .  A
C272        C561   1.487       .  S
C273        H275   1.082       .  S
Cu276       N279   2.079       .  S
Cu277       N287   2.073       .  S
Cu278       N280   2.069       .  S
Cu278       N286   2.069       .  S
N279        N280   1.322       .  A
N279        C283   1.345       .  A
N280        C281   1.345       .  A
C281        C282   1.381       .  A
C281        H284   1.082       .  S
C282        C283   1.384       .  A
C282        C585   1.475   1_655  S
C283        H285   1.082       .  S
N286        N287   1.322       .  A
N286        C290   1.345       .  A
N287        C288   1.343       .  A
C288        C289   1.383       .  A
C288        H291   1.082       .  S
C289        C290   1.384       .  A
C289        C528   1.479       .  S
C290        H292   1.082       .  S
N293        N294   1.321       .  A
N293        C297   1.345       .  A
N293       Cu301   2.067       .  S
N294        C295   1.343       .  A
N294       Cu300   2.065       .  S
C295        C296   1.382       .  A
C295        H298   1.082       .  S
C296        C297   1.385       .  A
C296        C549   1.478       .  S
C297        H299   1.082       .  S
Cu300       N303   2.065       .  S
Cu301       N311   2.068       .  S
Cu302       N304   2.079       .  S
Cu302       N310   2.079       .  S
N303        N304   1.321       .  A
N303        C307   1.342       .  A
N304        C305   1.347       .  A
C305        C306   1.390       .  A
C305        H308   1.081       .  S
C306        C307   1.384       .  A
C306        C513   1.486       .  S
C307        H309   1.082       .  S
N310        N311   1.323       .  A
N310        C314   1.344       .  A
N311        C312   1.344       .  A
C312        C313   1.382       .  A
C312        H315   1.082       .  S
C313        C314   1.385       .  A
C313        C525   1.480       .  S
C314        H316   1.082       .  S
N317        C321   1.368   1_545  A
N317        C318   1.365       .  A
N317        N324   1.431   1_554  S
C318        C319   1.380       .  A
C318        C540   1.483   1_554  S
C319        C320   1.370       .  A
C319        H322   1.083       .  S
C320        C321   1.383   1_545  A
C320        H323   1.082       .  S
C321        C792   1.494       .  S
N324        C328   1.364   1_545  A
N324        C325   1.369       .  A
C325        C326   1.385       .  A
C325        C504   1.493       .  S
C326        C327   1.369   1_545  A
C326        H329   1.082       .  S
C327        C328   1.379       .  A
C327        H330   1.082       .  S
C328        C609   1.492       .  S
N331        N332   1.322       .  A
N331        C335   1.348       .  A
N331       Cu339   2.085       .  S
N332        C333   1.345       .  A
N332       Cu338   2.080       .  S
C333        C334   1.387       .  A
C333        H336   1.082       .  S
C334        C335   1.389       .  A
C334        C477   1.492       .  S
C335        H337   1.081       .  S
Cu338       N341   2.079       .  S
Cu339       N349   2.086       .  S
Cu340       N342   2.083       .  S
Cu340       N348   2.084       .  S
N341        N342   1.323       .  A
N341        C345   1.347       .  A
N342        C343   1.346       .  A
C343        C344   1.384       .  A
C343        H346   1.082   1_554  S
C344        C345   1.383       .  A
C344        C720   1.480       .  S
C345        H347   1.082       .  S
N348        N349   1.322       .  A
N348        C352   1.347       .  A
N349        C350   1.346       .  A
C350        C351   1.389       .  A
C350        H353   1.081       .  S
C351        C352   1.389       .  A
C351        C489   1.494   1_554  S
C352        H354   1.082   1_554  S
N355        N356   1.321       .  A
N355        C359   1.350       .  A
N355       Cu363   2.089       .  S
N356        C357   1.342       .  A
N356       Cu362   2.072       .  S
C357        C358   1.385       .  A
C357        H360   1.082       .  S
C358        C359   1.391       .  A
C358        C465   1.492       .  S
C359        H361   1.081       .  S
Cu362       N365   2.072       .  S
Cu363       N373   2.090       .  S
Cu364       N366   2.089       .  S
Cu364       N372   2.090       .  S
N365        N366   1.321       .  A
N365        C369   1.344       .  A
N366        C367   1.348       .  A
C367        C368   1.392       .  A
C367        H370   1.080       .  S
C368        C369   1.387       .  A
C368        C501   1.495       .  S
C369        H371   1.082       .  S
N372        N373   1.323       .  A
N372        C376   1.347       .  A
N373        C374   1.347       .  A
C374        C375   1.390       .  A
C374        H377   1.080       .  S
C375        C376   1.389       .  A
C375        C492   1.497       .  S
C376        H378   1.082       .  S
N379        N380   1.322       .  A
N379        C383   1.349       .  A
N379       Cu387   2.090       .  S
N380        C381   1.344       .  A
N380       Cu386   2.075       .  S
C381        C382   1.384       .  A
C381        H384   1.082       .  S
C382        C383   1.388       .  A
C382        C480   1.487       .  S
C383        H385   1.082       .  S
Cu386       N389   2.074       .  S
Cu387       N397   2.091       .  S
Cu388       N390   2.087       .  S
Cu388       N396   2.088       .  S
N389        N390   1.322       .  A
N389        C393   1.345       .  A
N390        C391   1.347       .  A
C391        C392   1.389       .  A
C391        H394   1.082       .  S
C392        C393   1.385       .  A
C392        C600   1.486       .  S
C393        H395   1.082       .  S
N396        N397   1.324       .  A
N396        C400   1.348       .  A
N397        C398   1.347       .  A
C398        C399   1.387       .  A
C398        H401   1.082       .  S
C399        C400   1.388       .  A
C399        C456   1.491       .  S
C400        H402   1.082       .  S
N403        N404   1.322       .  A
N403        C407   1.348       .  A
N403       Cu411   2.084       .  S
N404        C405   1.344       .  A
N404       Cu410   2.078       .  S
C405        C406   1.388       .  A
C405        H408   1.081       .  S
C406        C407   1.389       .  A
C406        C468   1.492       .  S
C407        H409   1.082       .  S
Cu410       N413   2.077       .  S
Cu411       N421   2.084       .  S
Cu412       N414   2.089       .  S
Cu412       N420   2.090       .  S
N413        N414   1.323       .  A
N413        C417   1.347       .  A
N414        C415   1.348       .  A
C415        C416   1.385       .  A
C415        H418   1.082       .  S
C416        C417   1.382       .  A
C416        C441   1.479       .  S
C417        H419   1.082       .  S
N420        N421   1.323       .  A
N420        C424   1.347       .  A
N421        C422   1.347       .  A
C422        C423   1.386       .  A
C422        H425   1.082       .  S
C423        C424   1.389       .  A
C423        C453   1.492       .  S
C424        H426   1.081       .  S
N427        C431   1.368   1_545  A
N427        C428   1.366       .  A
N427        N434   1.431       .  S
C428        C429   1.383       .  A
C428        C516   1.486       .  S
C429        C430   1.369   1_545  A
C429        H432   1.083       .  S
C430        C431   1.380       .  A
C430        H433   1.082       .  S
C431        C732   1.497       .  S
N434        C438   1.365       .  A
N434        C435   1.368       .  A
C435        C436   1.380       .  A
C435        C444   1.491       .  S
C436        C437   1.369       .  A
C436        H439   1.083       .  S
C437        C438   1.383       .  A
C437        H440   1.082       .  S
C438        C660   1.491   1_545  S
C441        C442   1.399       .  A
C441        C446   1.408       .  A
C442        C443   1.402       .  A
C442        H447   1.085       .  S
C443        C444   1.417       .  A
C443        C450   1.440       .  S
C444        C445   1.407       .  A
C445        C446   1.404       .  A
C445        H448   1.085       .  S
C446        C449   1.443       .  S
C449        N451   1.157       .  T
C450        N452   1.156       .  T
C453        C454   1.406       .  A
C453        C458   1.415       .  A
C454        C455   1.406       .  A
C454        H459   1.085       .  S
C455        C456   1.415       .  A
C455        C462   1.444       .  S
C456        C457   1.404       .  A
C457        C458   1.403       .  A
C457        H460   1.085       .  S
C458        C461   1.443       .  S
C461        N463   1.157       .  T
C462        N464   1.157       .  T
C465        C466   1.404       .  A
C465        C470   1.415       .  A
C466        C467   1.400       .  A
C466        H471   1.085       .  S
C467        C468   1.415       .  A
C467        C474   1.444       .  S
C468        C469   1.407       .  A
C469        C470   1.406       .  A
C469        H472   1.084       .  S
C470        C473   1.443       .  S
C473        N475   1.157       .  T
C474        N476   1.157       .  T
C477        C478   1.406       .  A
C477        C482   1.416       .  A
C478        C479   1.401       .  A
C478        H483   1.084       .  S
C479        C480   1.413       .  A
C479        C486   1.444       .  S
C480        C481   1.404       .  A
C481        C482   1.406       .  A
C481        H484   1.085       .  S
C482        C485   1.443       .  S
C485        N487   1.157       .  T
C486        N488   1.157       .  T
C489        C490   1.406       .  A
C489        C494   1.415   1_556  A
C490        C491   1.404       .  A
C490        H495   1.084       .  S
C491        C492   1.417       .  A
C491        C498   1.443       .  S
C492        C493   1.407       .  A
C493        C494   1.404   1_556  A
C493        H496   1.084       .  S
C494        C497   1.443       .  S
C497        N499   1.157       .  T
C498        N500   1.157       .  T
C501        C502   1.409       .  A
C501        C506   1.415       .  A
C502        C503   1.405       .  A
C502        H507   1.083       .  S
C503        C504   1.412       .  A
C503        C510   1.444       .  S
C504        C505   1.402       .  A
C505        C506   1.402       .  A
C505        H508   1.072       .  S
C506        C509   1.443       .  S
C509        N511   1.157       .  T
C510        N512   1.157       .  T
C513        C514   1.407       .  A
C513        C518   1.414       .  A
C514        C515   1.401       .  A
C514        H519   1.084       .  S
C515        C516   1.410       .  A
C515        C522   1.443       .  S
C516        C517   1.402       .  A
C517        C518   1.399       .  A
C517        H520   1.077       .  S
C518        C521   1.444       .  S
C521        N523   1.157       .  T
C522        N524   1.157       .  T
C525        C526   1.404       .  A
C525        C530   1.412       .  A
C526        C527   1.401       .  A
C526        H531   1.085       .  S
C527        C528   1.412       .  A
C527        C534   1.444       .  S
C528        C529   1.403       .  A
C529        C530   1.398       .  A
C529        H532   1.085       .  S
C530        C533   1.444       .  S
C533        N535   1.157       .  T
C534        N536   1.157       .  T
C537        C538   1.399       .  A
C537        C542   1.409       .  A
C538        C539   1.396       .  A
C538        H543   1.085       .  S
C539        C540   1.414       .  A
C539        C546   1.441       .  S
C540        C541   1.406       .  A
C541        C542   1.404       .  A
C541        H544   1.085   1_556  S
C542        C545   1.442       .  S
C545        N547   1.157       .  T
C546        N548   1.156       .  T
C549        C550   1.403       .  A
C549        C554   1.412       .  A
C550        C551   1.400       .  A
C550        H555   1.085       .  S
C551        C552   1.412       .  A
C551        C558   1.444       .  S
C552        C553   1.404       .  A
C553        C554   1.399       .  A
C553        H556   1.085       .  S
C554        C557   1.444       .  S
C557        N559   1.157       .  T
C558        N560   1.157       .  T
C561        C562   1.406       .  A
C561        C566   1.412       .  A
C562        C563   1.405       .  A
C562        H567   1.084       .  S
C563        C564   1.414       .  A
C563        C570   1.443       .  S
C564        C565   1.405       .  A
C565        C566   1.399       .  A
C565        H568   1.085       .  S
C566        C569   1.444       .  S
C569        N571   1.157       .  T
C570        N572   1.157       .  T
C573        C574   1.403       .  A
C573        C578   1.414       .  A
C574        C575   1.402   1_554  A
C574        H579   1.085       .  S
C575        C576   1.416       .  A
C575        C582   1.444       .  S
C576        C577   1.406   1_556  A
C577        C578   1.404       .  A
C577        H580   1.084       .  S
C578        C581   1.443       .  S
C581        N583   1.157       .  T
C582        N584   1.157       .  T
C585        C586   1.403       .  A
C585        C590   1.410       .  A
C586        C587   1.402       .  A
C586        H591   1.085       .  S
C587        C588   1.413       .  A
C587        C594   1.444       .  S
C588        C589   1.405       .  A
C589        C590   1.398       .  A
C589        H592   1.084       .  S
C590        C593   1.444   1_455  S
C593        N595   1.157       .  T
C594        N596   1.157       .  T
C597        C598   1.405       .  A
C597        C602   1.413       .  A
C598        C599   1.404       .  A
C598        H603   1.083       .  S
C599        C600   1.413       .  A
C599        C606   1.443       .  S
C600        C601   1.402       .  A
C601        C602   1.399       .  A
C601        H604   1.085       .  S
C602        C605   1.442       .  S
C605        N607   1.157       .  T
C606        N608   1.157       .  T
C609        C610   1.407       .  A
C609        C614   1.418   1_556  A
C610        C611   1.401   1_556  A
C610        H615   1.085       .  S
C611        C612   1.408       .  A
C611        C618   1.443       .  S
C612        C613   1.400       .  A
C613        C614   1.401       .  A
C613        H616   1.085       .  S
C614        C617   1.441       .  S
C617        N619   1.157   1_565  T
C618        N620   1.157       .  T
C621        C622   1.406       .  A
C621        C626   1.415   1_554  A
C622        C623   1.403       .  A
C622        H627   1.084       .  S
C623        C624   1.414   1_554  A
C623        C630   1.443       .  S
C624        C625   1.405       .  A
C625        C626   1.402       .  A
C625        H628   1.085       .  S
C626        C629   1.444       .  S
C629        N631   1.157       .  T
C630        N632   1.157       .  T
C633        C634   1.399       .  A
C633        C638   1.408       .  A
C634        C635   1.399       .  A
C634        H639   1.085       .  S
C635        C636   1.419       .  A
C635        C642   1.442       .  S
C636        C637   1.408       .  A
C637        C638   1.400       .  A
C637        H640   1.085       .  S
C638        C641   1.443       .  S
C641        N643   1.157       .  T
C642        N644   1.158       .  T
C645        C646   1.405       .  A
C645        C650   1.416       .  A
C646        C647   1.398       .  A
C646        H651   1.084       .  S
C647        C648   1.412       .  A
C647        C654   1.444       .  S
C648        C649   1.404       .  A
C649        C650   1.404       .  A
C649        H652   1.085       .  S
C650        C653   1.443       .  S
C653        N655   1.157       .  T
C654        N656   1.157       .  T
C657        C658   1.406       .  A
C657        C662   1.414       .  A
C658        C659   1.400       .  A
C658        H663   1.084       .  S
C659        C660   1.411       .  A
C659        C666   1.444       .  S
C660        C661   1.402       .  A
C661        C662   1.400       .  A
C661        H664   1.077       .  S
C662        C665   1.443       .  S
C665        N667   1.157       .  T
C666        N668   1.157       .  T
C669        C670   1.404       .  A
C669        C674   1.411       .  A
C670        C671   1.403       .  A
C670        H675   1.085       .  S
C671        C672   1.413       .  A
C671        C678   1.443       .  S
C672        C673   1.404       .  A
C673        C674   1.399       .  A
C673        H676   1.085       .  S
C674        C677   1.444       .  S
C677        N679   1.157       .  T
C678        N680   1.157       .  T
C681        C682   1.404       .  A
C681        C686   1.414       .  A
C682        C683   1.399       .  A
C682        H687   1.085       .  S
C683        C684   1.414       .  A
C683        C690   1.444       .  S
C684        C685   1.404       .  A
C685        C686   1.402       .  A
C685        H688   1.085       .  S
C686        C689   1.443       .  S
C689        N691   1.157       .  T
C690        N692   1.157       .  T
C693        C694   1.410   1_655  A
C693        C698   1.417       .  A
C694        C695   1.403       .  A
C694        H699   1.084       .  S
C695        C696   1.410       .  A
C695        C702   1.444       .  S
C696        C697   1.401       .  A
C697        C698   1.401   1_455  A
C697        H700   1.074   1_454  S
C698        C701   1.442       .  S
C701        N703   1.157   1_554  T
C702        N704   1.157       .  T
C705        C706   1.403       .  A
C705        C710   1.410       .  A
C706        C707   1.403       .  A
C706        H711   1.084       .  S
C707        C708   1.418       .  A
C707        C714   1.443       .  S
C708        C709   1.409       .  A
C709        C710   1.400       .  A
C709        H712   1.084       .  S
C710        C713   1.444       .  S
C713        N715   1.157       .  T
C714        N716   1.158       .  T
C717        C718   1.406   1_556  A
C717        C722   1.413       .  A
C718        C719   1.402       .  A
C718        H723   1.084       .  S
C719        C720   1.411       .  A
C719        C726   1.444       .  S
C720        C721   1.402       .  A
C721        C722   1.402   1_554  A
C721        H724   1.085       .  S
C722        C725   1.443       .  S
C725        N727   1.157       .  T
C726        N728   1.157       .  T
C729        C730   1.401       .  A
C729        C734   1.410       .  A
C730        C731   1.403       .  A
C730        H735   1.085       .  S
C731        C732   1.417       .  A
C731        C738   1.441   1_565  S
C732        C733   1.408       .  A
C733        C734   1.402       .  A
C733        H736   1.085       .  S
C734        C737   1.443       .  S
C737        N739   1.157       .  T
C738        N740   1.157       .  T
C741        C742   1.407       .  A
C741        C746   1.418       .  A
C742        C743   1.398       .  A
C742        H747   1.084       .  S
C743        C744   1.411       .  A
C743        C750   1.444       .  S
C744        C745   1.404       .  A
C745        C746   1.406       .  A
C745        H748   1.084       .  S
C746        C749   1.442   1_455  S
C749        N751   1.157       .  T
C750        N752   1.157       .  T
C753        C754   1.405       .  A
C753        C758   1.414       .  A
C754        C755   1.400       .  A
C754        H759   1.084       .  S
C755        C756   1.412       .  A
C755        C762   1.444       .  S
C756        C757   1.404       .  A
C757        C758   1.403       .  A
C757        H760   1.085       .  S
C758        C761   1.443       .  S
C761        N763   1.157       .  T
C762        N764   1.157       .  T
C765        C766   1.408       .  A
C765        C770   1.418   1_455  A
C766        C767   1.403       .  A
C766        H771   1.085   1_556  S
C767        C768   1.409   1_455  A
C767        C774   1.443       .  S
C768        C769   1.399       .  A
C769        C770   1.401       .  A
C769        H772   1.085       .  S
C770        C773   1.440       .  S
C773        N775   1.156       .  T
C774        N776   1.157       .  T
C777        C778   1.407       .  A
C777        C782   1.413       .  A
C778        C779   1.403       .  A
C778        H783   1.084       .  S
C779        C780   1.410       .  A
C779        C786   1.444       .  S
C780        C781   1.402       .  A
C781        C782   1.398       .  A
C781        H784   1.085       .  S
C782        C785   1.444       .  S
C785        N787   1.157       .  T
C786        N788   1.157       .  T
C789        C790   1.409       .  A
C789        C794   1.418       .  A
C790        C791   1.401       .  A
C790        H795   1.084       .  S
C791        C792   1.411       .  A
C791        C798   1.444       .  S
C792        C793   1.402       .  A
C793        C794   1.404       .  A
C793        H796   1.079   1_554  S
C794        C797   1.442   1_554  S
C797        N799   1.158       .  T
C798        N800   1.157       .  T
C801        C802   1.406       .  A
C801        C806   1.415       .  A
C802        C803   1.404       .  A
C802        H807   1.084       .  S
C803        C804   1.413       .  A
C803        C810   1.443       .  S
C804        C805   1.403       .  A
C805        C806   1.399       .  A
C805        H808   1.085       .  S
C806        C809   1.444       .  S
C809        N811   1.157       .  T
C810        N812   1.157       .  T
C813        C814   1.405       .  A
C813        C818   1.414   1_554  A
C814        C815   1.401       .  A
C814        H819   1.084       .  S
C815        C816   1.413   1_554  A
C815        C822   1.444       .  S
C816        C817   1.406       .  A
C817        C818   1.403       .  A
C817        H820   1.084       .  S
C818        C821   1.444       .  S
C821        N823   1.157       .  T
C822        N824   1.157       .  T
