geometry optimzed in LAMMPS
_audit_creation_date              2020-12-01 
_audit_creation_method            'lammps2cif' 
_symmetry_space_group_name_H-M    'P1' 
_symmetry_Int_Tables_number       1 
_symmetry_cell_setting            triclinic 
loop_ 
_symmetry_equiv_pos_as_xyz 
  x,y,z 
_cell_length_a                    40.36368817 
_cell_length_b                    36.50999455971498 
_cell_length_c                    36.26298208787054 
_cell_angle_alpha                 90.00189036374549 
_cell_angle_beta                  89.99675578663404 
_cell_angle_gamma                 89.99768836368838 
loop_ 
_atom_site_label 
_atom_site_type_symbol 
_atom_site_fract_x 
_atom_site_fract_y 
_atom_site_fract_z 
_atom_site_charge 
O1          O  0.53504932  0.04693972  0.01732670    -0.72900
O2          O  0.46519239  0.00658250  0.44943850    -0.73900
O3          O  0.46475242  0.04683181  0.01651508    -0.62500
O4          O  0.53591272  0.00667071  0.45026135    -0.70900
O5          O  0.53547362  0.95497739  0.48250755    -0.70500
O6          O  0.46427912  0.99514857  0.04877515    -0.61700
O7          O  0.46517915  0.95486921  0.48165008    -0.74300
O8          O  0.53505697  0.99527563  0.04961442    -0.73000
Cu9        Cu  0.50023378  0.02856779  0.48228813     1.04600
Cu10       Cu  0.49998660  0.97324791  0.01674856     1.04300
C11         C  0.54610543  0.02759657  0.04400345     0.93300
C12         C  0.45416662  0.97424661  0.45496904     0.92400
C13         C  0.45328044  0.02744602  0.04293845     0.84500
C14         C  0.54691463  0.97437312  0.45607179     0.90800
O15         O  0.53583638  0.49518774  0.44925181    -0.72900
O16         O  0.46474367  0.45494331  0.01564085    -0.73900
O17         O  0.46510682  0.49522357  0.44852646    -0.62500
O18         O  0.53508090  0.45488831  0.01636030    -0.70900
O19         O  0.53505451  0.50657542  0.04861441    -0.70500
O20         O  0.46512032  0.54691265  0.48078200    -0.61700
O21         O  0.46428288  0.50665514  0.04785714    -0.74300
O22         O  0.53537424  0.54685170  0.48154790    -0.73000
Cu23       Cu  0.50019935  0.47323711  0.48134300     1.04600
Cu24       Cu  0.49994806  0.52855623  0.01580824     1.04300
C25         C  0.54680314  0.52750109  0.45507494     0.93300
C26         C  0.45328025  0.47435646  0.04205695     0.92400
C27         C  0.45409058  0.52756139  0.45409682     0.84500
C28         C  0.54613987  0.47427096  0.04301249     0.90800
N29         N  0.10874038  0.08192731  0.40724915    -0.27300
N30         N  0.11212887  0.05034284  0.38981654    -0.35100
C31         C  0.09041522  0.02613036  0.40412105     0.01100
C32         C  0.07274810  0.04347911  0.43188405     0.07100
C33         C  0.08505501  0.07873740  0.43305547    -0.06000
H34         H  0.08797686  0.99794150  0.39531133     0.07800
H35         H  0.07733119  0.10058677  0.45129827     0.09000
Cu36       Cu  0.14754181  0.04224379  0.34872178     0.44200
Cu37       Cu  0.13563406  0.12851611  0.39511689     0.42000
Cu38       Cu  0.20124319  0.12284030  0.33049362     0.43900
N39         N  0.18872599  0.04207054  0.31394731    -0.34700
N40         N  0.20882046  0.07034851  0.30948458    -0.28900
C41         C  0.23382584  0.06043829  0.28720130    -0.05000
C42         C  0.22860987  0.02475378  0.27511519     0.07200
C43         C  0.20020398  0.01377366  0.29378711     0.01000
H44         H  0.25442812  0.07817149  0.28066628     0.08600
H45         H  0.18867776  0.98704529  0.29264291     0.07700
N46         N  0.18532258  0.17264217  0.35224574    -0.36100
N47         N  0.16108897  0.17402435  0.37666640    -0.28300
C48         C  0.15479197  0.20908994  0.38518524    -0.03500
C49         C  0.17597493  0.23116357  0.36511074     0.05100
C50         C  0.19510051  0.20715414  0.34441816     0.03200
H51         H  0.13555109  0.21783014  0.40399393     0.08300
H52         H  0.21414811  0.21422553  0.32467256     0.07100
N53         N  0.10886473  0.42093461  0.40682180    -0.27300
N54         N  0.11208202  0.45234040  0.38903077    -0.35100
C55         C  0.09031597  0.47661527  0.40313393     0.01100
C56         C  0.07278130  0.45949047  0.43113493     0.07100
C57         C  0.08522379  0.42429884  0.43265353    -0.06000
H58         H  0.08774916  0.50469382  0.39401844     0.07800
H59         H  0.07762706  0.40261488  0.45115925     0.09000
Cu60       Cu  0.14736663  0.46013789  0.34776859     0.44200
Cu61       Cu  0.13592699  0.37434834  0.39510758     0.42000
Cu62       Cu  0.20163605  0.37982486  0.33051268     0.43900
N63         N  0.18863414  0.46031813  0.31314962    -0.34700
N64         N  0.20900729  0.43221778  0.30913062    -0.28900
C65         C  0.23406022  0.44219121  0.28693862    -0.05000
C66         C  0.22855312  0.47766951  0.27439229     0.07200
C67         C  0.19994996  0.48852416  0.29275688     0.01000
H68         H  0.25487120  0.42463707  0.28072499     0.08600
H69         H  0.18820399  0.51512059  0.29129292     0.07700
N70         N  0.18562823  0.33008681  0.35236110    -0.36100
N71         N  0.16138097  0.32878453  0.37677207    -0.28300
C72         C  0.15496266  0.29373760  0.38525439    -0.03500
C73         C  0.17606994  0.27159127  0.36516063     0.05100
C74         C  0.19528734  0.29553821  0.34450293     0.03200
H75         H  0.13565749  0.28506038  0.40400954     0.08300
H76         H  0.21428732  0.28840007  0.32472389     0.07100
N77         N  0.39284427  0.92045741  0.40542197    -0.27300
N78         N  0.38955393  0.95208343  0.38803771    -0.35100
C79         C  0.41109356  0.97629984  0.40266868     0.01100
C80         C  0.42852635  0.95891640  0.43059819     0.07100
C81         C  0.41627704  0.92362892  0.43151307    -0.06000
H82         H  0.41350747  0.00454363  0.39403372     0.07800
H83         H  0.42382027  0.90176504  0.44982985     0.09000
Cu84       Cu  0.35427114  0.96035109  0.34679101     0.44200
Cu85       Cu  0.36603631  0.87386661  0.39307298     0.42000
Cu86       Cu  0.30044729  0.87974132  0.32875558     0.43900
N87         N  0.31271036  0.96066301  0.31252394    -0.34700
N88         N  0.29257000  0.93238702  0.30831432    -0.28900
C89         C  0.26716666  0.94239135  0.28666288    -0.05000
C90         C  0.27214147  0.97812577  0.27461660     0.07200
C91         C  0.30086236  0.98904992  0.29274116     0.01000
H92         H  0.24644526  0.92467724  0.28056784     0.08600
H93         H  0.31232110  0.01581034  0.29151331     0.07700
N94         N  0.31634712  0.82981264  0.35019519    -0.36100
N95         N  0.34058683  0.82837350  0.37459425    -0.28300
C96         C  0.34686068  0.79329572  0.38306023    -0.03500
C97         C  0.32566324  0.77126281  0.36295854     0.05100
C98         C  0.30654422  0.79531798  0.34230820     0.03200
H99         H  0.36609677  0.78452065  0.40185413     0.08300
H100        H  0.28747454  0.78829182  0.32257411     0.07100
N101        N  0.39268478  0.58150404  0.40488576    -0.27300
N102        N  0.38955794  0.55003277  0.38718321    -0.35100
C103        C  0.41114552  0.52576600  0.40164363     0.01100
C104        C  0.42844626  0.54296325  0.42978694     0.07100
C105        C  0.41606859  0.57818758  0.43100533    -0.06000
H106        H  0.41368382  0.49761668  0.39274065     0.07800
H107        H  0.42348838  0.59991032  0.44955470     0.09000
Cu108      Cu  0.35440390  0.54202358  0.34577902     0.44200
Cu109      Cu  0.36574539  0.62809737  0.39292206     0.42000
Cu110      Cu  0.30012087  0.62244496  0.32863394     0.43900
N111        N  0.31275839  0.54173642  0.31167652    -0.34700
N112        N  0.29239209  0.56987289  0.30787896    -0.28900
C113        C  0.26692581  0.55982173  0.28633874    -0.05000
C114        C  0.27212087  0.52425920  0.27388075     0.07200
C115        C  0.30101993  0.51342963  0.29170046     0.01000
H116        H  0.24602899  0.57739024  0.28055517     0.08600
H117        H  0.31265264  0.48677562  0.29017669     0.07700
N118        N  0.31608214  0.67231766  0.35019166    -0.36100
N119        N  0.34032452  0.67366311  0.37459346    -0.28300
C120        C  0.34670389  0.70871393  0.38307375    -0.03500
C121        C  0.32557986  0.73083223  0.36297448     0.05100
C122        C  0.30638606  0.70685372  0.34231610     0.03200
H123        H  0.36598879  0.71741197  0.40184215     0.08300
H124        H  0.28736251  0.71396030  0.32255605     0.07100
N125        N  0.10748263  0.92105458  0.09330010    -0.27300
N126        N  0.11075571  0.95259307  0.11084358    -0.35100
C127        C  0.08930318  0.97692036  0.09623841     0.01100
C128        C  0.07194339  0.95968533  0.06816306     0.07100
C129        C  0.08414574  0.92438297  0.06713345    -0.06000
H130        H  0.08687277  0.00511874  0.10502209     0.07800
H131        H  0.07660840  0.90260157  0.04871356     0.09000
Cu132      Cu  0.14590164  0.96053038  0.15225911     0.44200
Cu133      Cu  0.13415602  0.87436449  0.10556406     0.42000
Cu134      Cu  0.20009345  0.87998856  0.16947617     0.43900
N135        N  0.18753241  0.96072282  0.18637363    -0.34700
N136        N  0.20785984  0.93255661  0.19021359    -0.28900
C137        C  0.23330814  0.94257666  0.21179670    -0.05000
C138        C  0.22814172  0.97815634  0.22421949     0.07200
C139        C  0.19928254  0.98902023  0.20634700     0.01000
H140        H  0.25417163  0.92497627  0.21763095     0.08600
H141        H  0.18767700  0.01569050  0.20784298     0.07700
N142        N  0.18395720  0.83012602  0.14807095    -0.36100
N143        N  0.15955808  0.82878406  0.12386331    -0.28300
C144        C  0.15308125  0.79373294  0.11548130    -0.03500
C145        C  0.17431141  0.77161375  0.13543829     0.05100
C146        C  0.19366741  0.79558829  0.15590891     0.03200
H147        H  0.13367715  0.78503897  0.09686309     0.08300
H148        H  0.21281163  0.78847940  0.17552283     0.07100
N149        N  0.10724188  0.58188944  0.09289288    -0.27300
N150        N  0.11069636  0.55018439  0.11008585    -0.35100
C151        C  0.08931831  0.52590345  0.09527067     0.01100
C152        C  0.07182815  0.54333706  0.06741738     0.07100
C153        C  0.08387454  0.57871102  0.06673575    -0.06000
H154        H  0.08702955  0.49760128  0.10375437     0.07800
H155        H  0.07620473  0.60064403  0.04856863     0.09000
Cu156      Cu  0.14596292  0.54198365  0.15135151     0.44200
Cu157      Cu  0.13373484  0.62858482  0.10559845     0.42000
Cu158      Cu  0.19969914  0.62271049  0.16945893     0.43900
N159        N  0.18752081  0.54174710  0.18561264    -0.34700
N160        N  0.20763152  0.57004617  0.18984879    -0.28900
C161        C  0.23303835  0.56005195  0.21150270    -0.05000
C162        C  0.22809519  0.52429750  0.22351538     0.07200
C163        C  0.19939168  0.51335824  0.20537152     0.01000
H164        H  0.25373998  0.57778635  0.21761977     0.08600
H165        H  0.18795587  0.48658521  0.20657424     0.07700
N166        N  0.18361301  0.67264280  0.14818539    -0.36100
N167        N  0.15918861  0.67408155  0.12401541    -0.28300
C168        C  0.15284341  0.70915580  0.11560802    -0.03500
C169        C  0.17419507  0.73118822  0.13550141     0.05100
C170        C  0.19347417  0.70713873  0.15597276     0.03200
H171        H  0.13348598  0.71792539  0.09696547     0.08300
H172        H  0.21270832  0.71416902  0.17550592     0.07100
C173        C  0.25009060  0.50095566  0.24870400    -0.02500
N174        N  0.39111872  0.08132286  0.09102448    -0.27300
N175        N  0.38787787  0.04989606  0.10877160    -0.35100
C176        C  0.40962231  0.02562002  0.09463104     0.01100
C177        C  0.42717076  0.04277543  0.06666013     0.07100
C178        C  0.41474725  0.07797251  0.06518121    -0.06000
H179        H  0.41220810  0.99754326  0.10374709     0.07800
H180        H  0.42239722  0.09969396  0.04674759     0.09000
Cu181      Cu  0.35269260  0.04213969  0.15013516     0.44200
Cu182      Cu  0.36422912  0.12797708  0.10291126     0.42000
Cu183      Cu  0.29871957  0.12263300  0.16774036     0.43900
N184        N  0.31154283  0.04206287  0.18491293    -0.34700
N185        N  0.29128569  0.07024155  0.18909773    -0.28900
C186        C  0.26627079  0.06031321  0.21136333    -0.05000
C187        C  0.27168014  0.02476224  0.22375849     0.07200
C188        C  0.30018663  0.01384245  0.20525368     0.01000
H189        H  0.24553547  0.07793525  0.21769067     0.08600
H190        H  0.31183579  0.98718713  0.20658182     0.07700
N191        N  0.31471666  0.17233072  0.14579544    -0.36100
N192        N  0.33890782  0.17359686  0.12131432    -0.28300
C193        C  0.34532973  0.20863455  0.11278728    -0.03500
C194        C  0.32427656  0.23080685  0.13292335     0.05100
C195        C  0.30509236  0.20688871  0.15364918     0.03200
H196        H  0.36459318  0.21728754  0.09396642     0.08300
H197        H  0.28613858  0.21405349  0.17347328     0.07100
N198        N  0.39123553  0.42060503  0.09049934    -0.27300
N199        N  0.38776563  0.45221409  0.10786606    -0.35100
C200        C  0.40944001  0.47645431  0.09353660     0.01100
C201        C  0.42717220  0.45909394  0.06583219     0.07100
C202        C  0.41493041  0.42380741  0.06470540    -0.06000
H203        H  0.41185298  0.50464872  0.10233849     0.07800
H204        H  0.42275542  0.40192474  0.04655634     0.09000
Cu205      Cu  0.35240963  0.46024586  0.14903373     0.44200
Cu206      Cu  0.36454810  0.37392547  0.10283014     0.42000
Cu207      Cu  0.29903432  0.37950930  0.16766487     0.43900
N208        N  0.31136811  0.46034982  0.18401401    -0.34700
N209        N  0.29138924  0.43200252  0.18866679    -0.28900
C210        C  0.26645169  0.44187672  0.21106499    -0.05000
C211        C  0.27159151  0.47763080  0.22299978     0.07200
C212        C  0.29988213  0.48866198  0.20414620     0.01000
H213        H  0.24593270  0.42408196  0.21775052     0.08600
H214        H  0.31132274  0.51544084  0.20514449     0.07700
N215        N  0.31500694  0.32974337  0.14585653    -0.36100
N216        N  0.33921037  0.32838362  0.12139509    -0.28300
C217        C  0.34552221  0.29332147  0.11286375    -0.03500
C218        C  0.32437553  0.27123229  0.13296793     0.05100
C219        C  0.30526162  0.29522417  0.15369057     0.03200
H220        H  0.36473621  0.28459525  0.09401334     0.08300
H221        H  0.28623657  0.28813570  0.17345651     0.07100
C222        C  0.25014343  0.00145687  0.24942649    -0.02500
O223        O  0.03531660  0.45553611  0.48140384    -0.72900
O224        O  0.96440995  0.49589458  0.04789721    -0.73900
O225        O  0.96506115  0.45570255  0.48077777    -0.62500
O226        O  0.03513258  0.49572611  0.04852898    -0.70900
O227        O  0.03518281  0.54748206  0.01638453    -0.70500
O228        O  0.96511937  0.50739332  0.44852701    -0.61700
O229        O  0.96488004  0.54761211  0.01569488    -0.74300
O230        O  0.03586488  0.50725010  0.44919703    -0.73000
Cu231      Cu  0.99996913  0.47390528  0.01574953     1.04600
Cu232      Cu  0.00027755  0.52925916  0.48134344     1.04300
C233        C  0.04677341  0.47489842  0.45495544     0.93300
C234        C  0.95344683  0.52821930  0.04214122     0.92400
C235        C  0.95404069  0.47508537  0.45411498     0.84500
C236        C  0.04619520  0.52804892  0.04302331     0.90800
O237        O  0.96495820  0.95559536  0.01673524    -0.72900
O238        O  0.03578577  0.99585128  0.45007839    -0.73900
O239        O  0.03521541  0.95566481  0.01722773    -0.62500
O240        O  0.96504203  0.99579369  0.44960166    -0.70900
O241        O  0.96506290  0.04751537  0.48180403    -0.70500
O242        O  0.03526887  0.00739744  0.04941408    -0.61700
O243        O  0.03535900  0.04759481  0.48224352    -0.74300
O244        O  0.96454353  0.00729653  0.04896970    -0.73000
Cu245      Cu  0.00026034  0.97391337  0.48230653     1.04600
Cu246      Cu  0.00005090  0.02927253  0.01670873     1.04300
C247        C  0.95358888  0.97496295  0.04322995     0.93300
C248        C  0.04674937  0.02818332  0.45578781     0.92400
C249        C  0.04628898  0.97506084  0.04385773     0.84500
C250        C  0.95397739  0.02810783  0.45518733     0.90800
N251        N  0.89253494  0.08193231  0.40587800    -0.27300
N252        N  0.88920547  0.05032382  0.38847168    -0.35100
C253        C  0.91074815  0.02607087  0.40303827     0.01100
C254        C  0.92822904  0.04341646  0.43095035     0.07100
C255        C  0.91599633  0.07871226  0.43192805    -0.06000
H256        H  0.91315982  0.99784433  0.39433994     0.07800
H257        H  0.92360531  0.10056411  0.45022572     0.09000
Cu258      Cu  0.85392713  0.04218199  0.34722639     0.44200
Cu259      Cu  0.86581516  0.12859727  0.39351393     0.42000
Cu260      Cu  0.80014146  0.12281972  0.32917335     0.43900
N261        N  0.81242279  0.04189372  0.31291004    -0.34700
N262        N  0.79228305  0.07016380  0.30864071    -0.28900
C263        C  0.76695297  0.06013609  0.28688086    -0.05000
C264        C  0.77198754  0.02439165  0.27485444     0.07200
C265        C  0.80065489  0.01349747  0.29308833     0.01000
H266        H  0.74624749  0.07783980  0.28068297     0.08600
H267        H  0.81214899  0.98675341  0.29188956     0.07700
N268        N  0.81613993  0.17272843  0.35066383    -0.36100
N269        N  0.84041645  0.17414150  0.37502414    -0.28300
C270        C  0.84673950  0.20922026  0.38347256    -0.03500
C271        C  0.82553142  0.23128150  0.36340875     0.05100
C272        C  0.80636048  0.20723856  0.34279986     0.03200
H273        H  0.86600660  0.21797779  0.40223633     0.08300
H274        H  0.78727010  0.21428674  0.32309939     0.07100
N275        N  0.89257189  0.42116102  0.40501964    -0.27300
N276        N  0.88945431  0.45260663  0.38727424    -0.35100
C277        C  0.91104982  0.47689012  0.40169392     0.01100
C278        C  0.92834692  0.45972044  0.42985583     0.07100
C279        C  0.91595410  0.42450732  0.43113036    -0.06000
H280        H  0.91360669  0.50502089  0.39273884     0.07800
H281        H  0.92337924  0.40280308  0.44969773     0.09000
Cu282      Cu  0.85430388  0.46050002  0.34587288     0.44200
Cu283      Cu  0.86565613  0.37453935  0.39309689     0.42000
Cu284      Cu  0.79984899  0.38009304  0.32902196     0.43900
N285        N  0.81261933  0.46074802  0.31186214    -0.34700
N286        N  0.79218100  0.43266235  0.30815656    -0.28900
C287        C  0.76673484  0.44274728  0.28659195    -0.05000
C288        C  0.77203084  0.47826145  0.27403299     0.07200
C289        C  0.80095542  0.48903797  0.29181803     0.01000
H290        H  0.74580227  0.42522740  0.28081635     0.08600
H291        H  0.81267168  0.51564128  0.29020967     0.07700
N292        N  0.81589684  0.33023453  0.35060381    -0.36100
N293        N  0.84022488  0.32891927  0.37490327    -0.28300
C294        C  0.84664866  0.29387304  0.38338831    -0.03500
C295        C  0.82546095  0.27172363  0.36340128     0.05100
C296        C  0.80618803  0.29568420  0.34280674     0.03200
H297        H  0.86599988  0.28519700  0.40208344     0.08300
H298        H  0.78709814  0.28855201  0.32313666     0.07100
N299        N  0.89156353  0.92106201  0.09150854    -0.27300
N300        N  0.88840205  0.95246176  0.10933165    -0.35100
C301        C  0.91016402  0.97671578  0.09518261     0.01100
C302        C  0.92762778  0.95958219  0.06712618     0.07100
C303        C  0.91515510  0.92440991  0.06562232    -0.06000
H304        H  0.91277064  0.00478975  0.10429836     0.07800
H305        H  0.92269206  0.90272679  0.04708325     0.09000
Cu306      Cu  0.85318042  0.96032171  0.15069108     0.44200
Cu307      Cu  0.86452338  0.87446865  0.10317836     0.42000
Cu308      Cu  0.79913321  0.87990714  0.16806355     0.43900
N309        N  0.81189183  0.96047968  0.18532870    -0.34700
N310        N  0.79159971  0.93231267  0.18936239    -0.28900
C311        C  0.76645973  0.94224207  0.21145268    -0.05000
C312        C  0.77181115  0.97777123  0.22394110     0.07200
C313        C  0.80043334  0.98869043  0.20563457     0.01000
H314        H  0.74567755  0.92462820  0.21760198     0.08600
H315        H  0.81208283  0.01533915  0.20706791     0.07700
N316        N  0.81502948  0.83016842  0.14609831    -0.36100
N317        N  0.83914168  0.82888008  0.12152399    -0.28300
C318        C  0.84547233  0.79384194  0.11291326    -0.03500
C319        C  0.82445021  0.77168630  0.13310337     0.05100
C320        C  0.80537779  0.79561867  0.15394867     0.03200
H321        H  0.86466345  0.78517469  0.09400706     0.08300
H322        H  0.78646652  0.78846835  0.17382695     0.07100
N323        N  0.89132460  0.58193794  0.09053163    -0.27300
N324        N  0.88805565  0.55041288  0.10810617    -0.35100
C325        C  0.90982029  0.52622192  0.09385295     0.01100
C326        C  0.92739831  0.54351691  0.06598624     0.07100
C327        C  0.91498321  0.57872504  0.06469374    -0.06000
H328        H  0.91237495  0.49808628  0.10279156     0.07800
H329        H  0.92263359  0.60053487  0.04636678     0.09000
Cu330      Cu  0.85278189  0.54231094  0.14938809     0.44200
Cu331      Cu  0.86441359  0.62854479  0.10257423     0.42000
Cu332      Cu  0.79941775  0.62298039  0.16796586     0.43900
N333        N  0.81167449  0.54213607  0.18432230    -0.34700
N334        N  0.79170062  0.57049587  0.18892356    -0.28900
C335        C  0.76666947  0.56063213  0.21119168    -0.05000
C336        C  0.77172601  0.52486613  0.22312417     0.07200
C337        C  0.80008572  0.51381775  0.20438314     0.01000
H338        H  0.74613119  0.57844093  0.21776748     0.08600
H339        H  0.81149258  0.48702078  0.20540229     0.07700
N340        N  0.81519175  0.67274764  0.14601108    -0.36100
N341        N  0.83916252  0.67410014  0.12126946    -0.28300
C342        C  0.84541388  0.70916304  0.11268915    -0.03500
C343        C  0.82447595  0.73125897  0.13306265     0.05100
C344        C  0.80554274  0.70726894  0.15398782     0.03200
H345        H  0.86447673  0.71788655  0.09365058     0.08300
H346        H  0.78672811  0.71435962  0.17400196     0.07100
N347        N  0.60784422  0.08145784  0.09284849    -0.27300
N348        N  0.61089532  0.05003839  0.11066271    -0.35100
C349        C  0.58917718  0.02581395  0.09636188     0.01100
C350        C  0.57185513  0.04298063  0.06821182     0.07100
C351        C  0.58437639  0.07814235  0.06681577    -0.06000
H352        H  0.58655128  0.99771435  0.10538955     0.07800
H353        H  0.57698463  0.09982897  0.04821098     0.09000
Cu354      Cu  0.64606396  0.04206330  0.15207940     0.44200
Cu355      Cu  0.63492079  0.12803818  0.10465218     0.42000
Cu356      Cu  0.70027323  0.12250323  0.16937157     0.43900
N357        N  0.68763015  0.04178833  0.18632595    -0.34700
N358        N  0.70797109  0.06993614  0.19020614    -0.28900
C359        C  0.73337511  0.05989128  0.21184870    -0.05000
C360        C  0.72816342  0.02431792  0.22427508     0.07200
C361        C  0.69932083  0.01348364  0.20634379    -0.04200
H362        H  0.75424204  0.07747050  0.21773197     0.08600
H363        H  0.68769144  0.98682605  0.20782207     0.07700
N364        N  0.68439023  0.17234796  0.14762222    -0.36100
N365        N  0.66027999  0.17366497  0.12305274    -0.28300
C366        C  0.65395185  0.20871841  0.11449391    -0.03500
C367        C  0.67496743  0.23086511  0.13471537     0.05100
C368        C  0.69404133  0.20689502  0.15552599     0.03200
H369        H  0.63476624  0.21740534  0.09559360     0.08300
H370        H  0.71295729  0.21401837  0.17540739     0.07100
N371        N  0.60786945  0.42061092  0.09212298    -0.27300
N372        N  0.61107456  0.45219220  0.10961436    -0.35100
C373        C  0.58938781  0.47635520  0.09515409     0.01100
C374        C  0.57193231  0.45898710  0.06723112     0.07100
C375        C  0.58434115  0.42376580  0.06613135    -0.06000
H376        H  0.58686412  0.50454672  0.10392580     0.07800
H377        H  0.57681652  0.40192448  0.04777752     0.09000
Cu378      Cu  0.64634371  0.46044798  0.15088718     0.44200
Cu379      Cu  0.63480188  0.37403122  0.10433739     0.42000
Cu380      Cu  0.69995593  0.37976195  0.16929100     0.43900
N381        N  0.68776249  0.46074396  0.18537696    -0.34700
N382        N  0.70781717  0.43242059  0.18978382    -0.28900
C383        C  0.73312915  0.44241530  0.21157983    -0.05000
C384        C  0.72818582  0.47821109  0.22348271     0.07200
C385        C  0.69957566  0.48915518  0.20515481     0.01000
H386        H  0.75377965  0.42466042  0.21785309     0.08600
H387        H  0.68816552  0.51594781  0.20624430     0.07700
N388        N  0.68417097  0.32986315  0.14760368    -0.36100
N389        N  0.66012248  0.32846605  0.12296442    -0.28300
C390        C  0.65388875  0.29338904  0.11441774    -0.03500
C391        C  0.67491068  0.27131357  0.13471221     0.05100
C392        C  0.69388362  0.29534929  0.15555804     0.03200
H393        H  0.63478511  0.28463823  0.09544545     0.08300
H394        H  0.71278517  0.28829314  0.17548077     0.07100
N395        N  0.60896855  0.92059152  0.40770519    -0.27300
N396        N  0.61234230  0.95213999  0.39020453    -0.35100
C397        C  0.59063783  0.97637961  0.40447914     0.01100
C398        C  0.57299068  0.95908200  0.43228394     0.07100
C399        C  0.58530067  0.92383023  0.43352181    -0.06000
H400        H  0.58815900  0.00453737  0.39558292     0.07800
H401        H  0.57756174  0.90200415  0.45178343     0.09000
Cu402      Cu  0.64763986  0.96015281  0.34897355     0.44200
Cu403      Cu  0.63578694  0.87395447  0.39561153     0.42000
Cu404      Cu  0.70108820  0.87951109  0.33050570     0.43900
N405        N  0.68869139  0.96031026  0.31400768    -0.34700
N406        N  0.70870707  0.93198528  0.30941531    -0.28900
C407        C  0.73369380  0.94189215  0.28709926    -0.05000
C408        C  0.72854799  0.97764094  0.27513360     0.07200
C409        C  0.70019651  0.98863517  0.29390507     0.01000
H410        H  0.75427100  0.92413589  0.28052980     0.08600
H411        H  0.68874637  0.01540942  0.29289774     0.07700
N412        N  0.68530705  0.82977562  0.35257604    -0.36100
N413        N  0.66121103  0.82843465  0.37716933    -0.28300
C414        C  0.65499207  0.79338536  0.38583231    -0.03500
C415        C  0.67608133  0.77128170  0.36566795     0.05100
C416        C  0.69507082  0.79525289  0.34478302     0.03200
H417        H  0.63584397  0.78467391  0.40477080     0.08300
H418        H  0.71399300  0.78814334  0.32490204     0.07100
N419        N  0.60887259  0.58147870  0.40698068    -0.27300
N420        N  0.61209486  0.55008957  0.38915632    -0.35100
C421        C  0.59034962  0.52579454  0.40325945     0.01100
C422        C  0.57282841  0.54289549  0.43128706     0.07100
C423        C  0.58525315  0.57808663  0.43282658    -0.06000
H424        H  0.58777534  0.49772666  0.39411200     0.07800
H425        H  0.57765012  0.59975828  0.45134610     0.09000
Cu426      Cu  0.64732356  0.54234025  0.34781605     0.44200
Cu427      Cu  0.63587888  0.62809943  0.39534353     0.42000
Cu428      Cu  0.70143412  0.62269927  0.33054014     0.43900
N429        N  0.68852842  0.54220521  0.31309377    -0.34700
N430        N  0.70885117  0.57034254  0.30904955    -0.28900
C431        C  0.73392150  0.56039550  0.28686442    -0.05000
C432        C  0.72847941  0.52488907  0.27434118     0.07200
C433        C  0.69989057  0.51400267  0.29271852     0.01000
H434        H  0.75472841  0.57796743  0.28069623     0.08600
H435        H  0.68820679  0.48737147  0.29130486     0.07700
N436        N  0.68555925  0.67238515  0.35265693    -0.36100
N437        N  0.66138439  0.67366484  0.37715824    -0.28300
C438        C  0.65505996  0.70869893  0.38579536    -0.03500
C439        C  0.67614996  0.73085741  0.36569649     0.05100
C440        C  0.69525966  0.70693414  0.34488835     0.03200
H441        H  0.63580661  0.71736351  0.40462475     0.08300
H442        H  0.71419880  0.71409380  0.32504696     0.07100
C443        C  0.75010355  0.50157021  0.24874876    -0.02500
C444        C  0.75012686  0.00101932  0.24954137    -0.02500
O445        O  0.53504929  0.04693975  0.51732672    -0.72900
O446        O  0.46519239  0.00658251  0.94943842    -0.73900
O447        O  0.46475246  0.04683179  0.51651508    -0.62500
O448        O  0.53591271  0.00667068  0.95026134    -0.70900
O449        O  0.53547364  0.95497736  0.98250753    -0.70500
O450        O  0.46427912  0.99514853  0.54877512    -0.61700
O451        O  0.46517902  0.95486930  0.98165014    -0.74300
O452        O  0.53505693  0.99527567  0.54961446    -0.73000
Cu453      Cu  0.50023374  0.02856777  0.98228810     1.04600
Cu454      Cu  0.49998664  0.97324789  0.51674856     1.04300
C455        C  0.54610538  0.02759662  0.54400349     0.93300
C456        C  0.45416658  0.97424665  0.95496901     0.92400
C457        C  0.45328043  0.02744600  0.54293843     0.84500
C458        C  0.54691466  0.97437313  0.95607179     0.90800
O459        O  0.53583633  0.49518783  0.94925181    -0.72900
O460        O  0.46474373  0.45494334  0.51564086    -0.73900
O461        O  0.46510677  0.49522352  0.94852649    -0.62500
O462        O  0.53508092  0.45488829  0.51636027    -0.70900
O463        O  0.53505450  0.50657540  0.54861437    -0.70500
O464        O  0.46512030  0.54691261  0.98078203    -0.61700
O465        O  0.46428286  0.50665518  0.54785710    -0.74300
O466        O  0.53537429  0.54685180  0.98154790    -0.73000
Cu467      Cu  0.50019933  0.47323710  0.98134300     1.04600
Cu468      Cu  0.49994803  0.52855620  0.51580821     1.04300
C469        C  0.54680311  0.52750118  0.95507490     0.93300
C470        C  0.45328031  0.47435647  0.54205695     0.92400
C471        C  0.45409053  0.52756135  0.95409686     0.84500
C472        C  0.54613991  0.47427096  0.54301243     0.90800
N473        N  0.10874032  0.08192730  0.90724913    -0.27300
N474        N  0.11212884  0.05034280  0.88981657    -0.35100
C475        C  0.09041523  0.02613030  0.90412111     0.01100
C476        C  0.07274811  0.04347904  0.93188412     0.07100
C477        C  0.08505499  0.07873732  0.93305545    -0.06000
H478        H  0.08797688  0.99794143  0.89531138     0.07800
H479        H  0.07733108  0.10058688  0.95129841     0.09000
Cu480      Cu  0.14754167  0.04224374  0.84872173     0.44200
Cu481      Cu  0.13563413  0.12851605  0.89511686     0.42000
Cu482      Cu  0.20124327  0.12284027  0.83049360     0.43900
N483        N  0.18872593  0.04207047  0.81394726    -0.34700
N484        N  0.20882043  0.07034845  0.80948456    -0.28900
C485        C  0.23382577  0.06043823  0.78720128    -0.05000
C486        C  0.22860989  0.02475375  0.77511518     0.07200
C487        C  0.20020399  0.01377361  0.79378710     0.01000
H488        H  0.25442820  0.07817160  0.78066620     0.08600
H489        H  0.18867780  0.98704520  0.79264291     0.07700
N490        N  0.18532265  0.17264219  0.85224574    -0.36100
N491        N  0.16108903  0.17402432  0.87666636    -0.28300
C492        C  0.15479187  0.20908990  0.88518520    -0.03500
C493        C  0.17597482  0.23116359  0.86511068     0.05100
C494        C  0.19510053  0.20715422  0.84441812     0.03200
H495        H  0.13555108  0.21782995  0.90399376     0.08300
H496        H  0.21414795  0.21422564  0.82467273     0.07100
N497        N  0.10886467  0.42093466  0.90682174    -0.27300
N498        N  0.11208201  0.45234048  0.88903080    -0.35100
C499        C  0.09031601  0.47661542  0.90313399     0.01100
C500        C  0.07278135  0.45949055  0.93113498     0.07100
C501        C  0.08522377  0.42429888  0.93265353    -0.06000
H502        H  0.08774920  0.50469382  0.89401855     0.07800
H503        H  0.07762704  0.40261498  0.95115918     0.09000
Cu504      Cu  0.14736651  0.46013785  0.84776855     0.44200
Cu505      Cu  0.13592704  0.37434835  0.89510756     0.42000
Cu506      Cu  0.20163616  0.37982488  0.83051287     0.43900
N507        N  0.18863420  0.46031819  0.81314975    -0.34700
N508        N  0.20900736  0.43221784  0.80913065    -0.28900
C509        C  0.23406022  0.44219135  0.78693860    -0.05000
C510        C  0.22855306  0.47766960  0.77439226     0.07200
C511        C  0.19994995  0.48852425  0.79275698     0.01000
H512        H  0.25487134  0.42463725  0.78072492     0.08600
H513        H  0.18820393  0.51512060  0.79129306     0.07700
N514        N  0.18562831  0.33008682  0.85236111    -0.36100
N515        N  0.16138104  0.32878457  0.87677207    -0.28300
C516        C  0.15496270  0.29373769  0.88525433    -0.03500
C517        C  0.17606987  0.27159130  0.86516059     0.05100
C518        C  0.19528738  0.29553819  0.84450288     0.03200
H519        H  0.13565732  0.28506044  0.90400966     0.08300
H520        H  0.21428722  0.28840008  0.82472398     0.07100
N521        N  0.39284420  0.92045743  0.90542206    -0.27300
N522        N  0.38955379  0.95208345  0.88803780    -0.35100
C523        C  0.41109354  0.97629983  0.90266863     0.01100
C524        C  0.42852637  0.95891640  0.93059812     0.07100
C525        C  0.41627704  0.92362896  0.93151305    -0.06000
H526        H  0.41350749  0.00454356  0.89403362     0.07800
H527        H  0.42382034  0.90176502  0.94982992     0.09000
Cu528      Cu  0.35427101  0.96035106  0.84679102     0.44200
Cu529      Cu  0.36603638  0.87386655  0.89307296     0.42000
Cu530      Cu  0.30044716  0.87974148  0.82875559     0.43900
N531        N  0.31271026  0.96066315  0.81252397    -0.34700
N532        N  0.29256987  0.93238720  0.80831436    -0.28900
C533        C  0.26716657  0.94239151  0.78666286    -0.05000
C534        C  0.27214150  0.97812586  0.77461651     0.07200
C535        C  0.30086237  0.98905013  0.79274112     0.01000
H536        H  0.24644517  0.92467746  0.78056781     0.08600
H537        H  0.31232098  0.01581024  0.79151330     0.07700
N538        N  0.31634716  0.82981266  0.85019511    -0.36100
N539        N  0.34058687  0.82837346  0.87459421    -0.28300
C540        C  0.34686062  0.79329568  0.88306020    -0.03500
C541        C  0.32566322  0.77126278  0.86295849     0.05100
C542        C  0.30654427  0.79531800  0.84230815     0.03200
H543        H  0.36609680  0.78452051  0.90185429     0.08300
H544        H  0.28747448  0.78829179  0.82257405     0.07100
N545        N  0.39268485  0.58150405  0.90488572    -0.27300
N546        N  0.38955801  0.55003277  0.88718315    -0.35100
C547        C  0.41114556  0.52576601  0.90164361     0.01100
C548        C  0.42844626  0.54296324  0.92978695     0.07100
C549        C  0.41606858  0.57818755  0.93100534    -0.06000
H550        H  0.41368385  0.49761666  0.89274067     0.07800
H551        H  0.42348833  0.59991036  0.94955483     0.09000
Cu552      Cu  0.35440396  0.54202354  0.84577898     0.44200
Cu553      Cu  0.36574547  0.62809735  0.89292202     0.42000
Cu554      Cu  0.30012094  0.62244493  0.82863393     0.43900
N555        N  0.31275839  0.54173648  0.81167646    -0.34700
N556        N  0.29239202  0.56987296  0.80787895    -0.28900
C557        C  0.26692580  0.55982175  0.78633875    -0.05000
C558        C  0.27212079  0.52425926  0.77388075     0.07200
C559        C  0.30101985  0.51342978  0.79170044     0.01000
H560        H  0.24602873  0.57739047  0.78055504     0.08600
H561        H  0.31265269  0.48677546  0.79017663     0.07700
N562        N  0.31608212  0.67231758  0.85019172    -0.36100
N563        N  0.34032454  0.67366308  0.87459347    -0.28300
C564        C  0.34670380  0.70871392  0.88307374    -0.03500
C565        C  0.32557976  0.73083219  0.86297450     0.05100
C566        C  0.30638596  0.70685362  0.84231615     0.03200
H567        H  0.36598883  0.71741208  0.90184219     0.08300
H568        H  0.28736245  0.71396011  0.82255611     0.07100
N569        N  0.10748268  0.92105459  0.59330006    -0.27300
N570        N  0.11075575  0.95259306  0.61084352    -0.35100
C571        C  0.08930325  0.97692045  0.59623835     0.01100
C572        C  0.07194342  0.95968537  0.56816302     0.07100
C573        C  0.08414578  0.92438300  0.56713341    -0.06000
H574        H  0.08687289  0.00511853  0.60502198     0.07800
H575        H  0.07660844  0.90260158  0.54871353     0.09000
Cu576      Cu  0.14590153  0.96053034  0.65225913     0.44200
Cu577      Cu  0.13415608  0.87436448  0.60556402     0.42000
Cu578      Cu  0.20009353  0.87998856  0.66947615     0.43900
N579        N  0.18753239  0.96072287  0.68637363    -0.34700
N580        N  0.20785987  0.93255664  0.69021355    -0.28900
C581        C  0.23330816  0.94257675  0.71179660    -0.05000
C582        C  0.22814177  0.97815637  0.72421944     0.07200
C583        C  0.19928257  0.98902026  0.70634698     0.01000
H584        H  0.25417181  0.92497625  0.71763087     0.08600
H585        H  0.18767703  0.01569060  0.70784300     0.07700
N586        N  0.18395723  0.83012605  0.64807091    -0.36100
N587        N  0.15955813  0.82878410  0.62386324    -0.28300
C588        C  0.15308127  0.79373299  0.61548126    -0.03500
C589        C  0.17431138  0.77161378  0.63543833     0.05100
C590        C  0.19366734  0.79558834  0.65590890     0.03200
H591        H  0.13367719  0.78503906  0.59686298     0.08300
H592        H  0.21281171  0.78847938  0.67552300     0.07100
N593        N  0.10724184  0.58188946  0.59289287    -0.27300
N594        N  0.11069639  0.55018438  0.61008583    -0.35100
C595        C  0.08931836  0.52590349  0.59527062     0.01100
C596        C  0.07182817  0.54333703  0.56741734     0.07100
C597        C  0.08387455  0.57871099  0.56673570    -0.06000
H598        H  0.08702958  0.49760105  0.60375443     0.07800
H599        H  0.07620473  0.60064400  0.54856854     0.09000
Cu600      Cu  0.14596298  0.54198363  0.65135145     0.44200
Cu601      Cu  0.13373470  0.62858483  0.60559844     0.42000
Cu602      Cu  0.19969923  0.62271064  0.66945892     0.43900
N603        N  0.18752078  0.54174724  0.68561262    -0.34700
N604        N  0.20763151  0.57004627  0.68984876    -0.28900
C605        C  0.23303836  0.56005198  0.71150263    -0.05000
C606        C  0.22809510  0.52429754  0.72351535     0.07200
C607        C  0.19939157  0.51335839  0.70537153     0.01000
H608        H  0.25373998  0.57778624  0.71761965     0.08600
H609        H  0.18795558  0.48658523  0.70657428     0.07700
N610        N  0.18361301  0.67264282  0.64818532    -0.36100
N611        N  0.15918855  0.67408158  0.62401540    -0.28300
C612        C  0.15284343  0.70915585  0.61560799    -0.03500
C613        C  0.17419512  0.73118824  0.63550138     0.05100
C614        C  0.19347421  0.70713872  0.65597269     0.03200
H615        H  0.13348606  0.71792547  0.59696549     0.08300
H616        H  0.21270839  0.71416894  0.67550587     0.07100
C617        C  0.25009055  0.50095573  0.74870396    -0.02500
N618        N  0.39111868  0.08132290  0.59102449    -0.27300
N619        N  0.38787775  0.04989605  0.60877153    -0.35100
C620        C  0.40962219  0.02562002  0.59463096     0.01100
C621        C  0.42717071  0.04277542  0.56666010     0.07100
C622        C  0.41474723  0.07797255  0.56518122    -0.06000
H623        H  0.41220794  0.99754322  0.60374697     0.07800
H624        H  0.42239722  0.09969396  0.54674770     0.09000
Cu625      Cu  0.35269248  0.04213966  0.65013510     0.44200
Cu626      Cu  0.36422920  0.12797725  0.60291125     0.42000
Cu627      Cu  0.29871960  0.12263313  0.66774038     0.43900
N628        N  0.31154284  0.04206296  0.68491292    -0.34700
N629        N  0.29128566  0.07024159  0.68909769    -0.28900
C630        C  0.26627080  0.06031319  0.71136331    -0.05000
C631        C  0.27168020  0.02476225  0.72375846     0.07200
C632        C  0.30018671  0.01384246  0.70525364     0.01000
H633        H  0.24553543  0.07793519  0.71769071     0.08600
H634        H  0.31183586  0.98718729  0.70658168     0.07700
N635        N  0.31471656  0.17233079  0.64579546    -0.36100
N636        N  0.33890774  0.17359689  0.62131441    -0.28300
C637        C  0.34532971  0.20863454  0.61278736    -0.03500
C638        C  0.32427658  0.23080689  0.63292339     0.05100
C639        C  0.30509226  0.20688883  0.65364929     0.03200
H640        H  0.36459320  0.21728742  0.59396650     0.08300
H641        H  0.28613876  0.21405357  0.67347316     0.07100
N642        N  0.39123560  0.42060505  0.59049939    -0.27300
N643        N  0.38776566  0.45221416  0.60786606    -0.35100
C644        C  0.40944009  0.47645432  0.59353659     0.01100
C645        C  0.42717231  0.45909393  0.56583223     0.07100
C646        C  0.41493052  0.42380738  0.56470548    -0.06000
H647        H  0.41185308  0.50464882  0.60233843     0.07800
H648        H  0.42275548  0.40192469  0.54655646     0.09000
Cu649      Cu  0.35240953  0.46024582  0.64903366     0.44200
Cu650      Cu  0.36454817  0.37392546  0.60283012     0.42000
Cu651      Cu  0.29903438  0.37950928  0.66766486     0.43900
N652        N  0.31136815  0.46034980  0.68401402    -0.34700
N653        N  0.29138928  0.43200252  0.68866681    -0.28900
C654        C  0.26645175  0.44187679  0.71106496    -0.05000
C655        C  0.27159153  0.47763085  0.72299976     0.07200
C656        C  0.29988220  0.48866201  0.70414620     0.01000
H657        H  0.24593260  0.42408196  0.71775050     0.08600
H658        H  0.31132278  0.51544077  0.70514439     0.07700
N659        N  0.31500691  0.32974337  0.64585653    -0.36100
N660        N  0.33921035  0.32838367  0.62139510    -0.28300
C661        C  0.34552225  0.29332155  0.61286374    -0.03500
C662        C  0.32437561  0.27123233  0.63296797     0.05100
C663        C  0.30526169  0.29522415  0.65369066     0.03200
H664        H  0.36473620  0.28459545  0.59401332     0.08300
H665        H  0.28623681  0.28813566  0.67345657     0.07100
C666        C  0.25014347  0.00145690  0.74942644    -0.02500
O667        O  0.03531664  0.45553610  0.98140384    -0.72900
O668        O  0.96441002  0.49589455  0.54789722    -0.73900
O669        O  0.96506119  0.45570252  0.98077776    -0.62500
O670        O  0.03513253  0.49572615  0.54852894    -0.70900
O671        O  0.03518279  0.54748213  0.51638453    -0.70500
O672        O  0.96511944  0.50739327  0.94852698    -0.61700
O673        O  0.96487993  0.54761207  0.51569488    -0.74300
O674        O  0.03586493  0.50725009  0.94919703    -0.73000
Cu675      Cu  0.99996913  0.47390527  0.51574952     1.04600
Cu676      Cu  0.00027761  0.52925911  0.98134343     1.04300
C677        C  0.04677346  0.47489843  0.95495545     0.93300
C678        C  0.95344684  0.52821924  0.54214128     0.92400
C679        C  0.95404076  0.47508532  0.95411494     0.84500
C680        C  0.04619516  0.52804896  0.54302329     0.90800
O681        O  0.96495829  0.95559533  0.51673524    -0.72900
O682        O  0.03578568  0.99585124  0.95007834    -0.73900
O683        O  0.03521536  0.95566487  0.51722779    -0.62500
O684        O  0.96504201  0.99579370  0.94960168    -0.70900
O685        O  0.96506280  0.04751536  0.98180406    -0.70500
O686        O  0.03526894  0.00739757  0.54941404    -0.61700
O687        O  0.03535891  0.04759473  0.98224350    -0.74300
O688        O  0.96454350  0.00729655  0.54896963    -0.73000
Cu689      Cu  0.00026028  0.97391334  0.98230651     1.04600
Cu690      Cu  0.00005096  0.02927264  0.51670873     1.04300
C691        C  0.95358892  0.97496294  0.54322992     0.93300
C692        C  0.04674931  0.02818325  0.95578781     0.92400
C693        C  0.04628897  0.97506093  0.54385775     0.84500
C694        C  0.95397735  0.02810782  0.95518733     0.90800
N695        N  0.89253501  0.08193228  0.90587795    -0.27300
N696        N  0.88920552  0.05032379  0.88847162    -0.35100
C697        C  0.91074819  0.02607083  0.90303820     0.01100
C698        C  0.92822907  0.04341643  0.93095030     0.07100
C699        C  0.91599639  0.07871221  0.93192800    -0.06000
H700        H  0.91315985  0.99784428  0.89433991     0.07800
H701        H  0.92360538  0.10056405  0.95022570     0.09000
Cu702      Cu  0.85392703  0.04218218  0.84722642     0.44200
Cu703      Cu  0.86581522  0.12859725  0.89351390     0.42000
Cu704      Cu  0.80014131  0.12281970  0.82917334     0.43900
N705        N  0.81242275  0.04189372  0.81291010    -0.34700
N706        N  0.79228303  0.07016379  0.80864073    -0.28900
C707        C  0.76695296  0.06013607  0.78688086    -0.05000
C708        C  0.77198759  0.02439164  0.77485440     0.07200
C709        C  0.80065493  0.01349746  0.79308832     0.01000
H710        H  0.74624753  0.07783973  0.78068301     0.08600
H711        H  0.81214905  0.98675347  0.79188954     0.07700
N712        N  0.81613984  0.17272842  0.85066384    -0.36100
N713        N  0.84041639  0.17414148  0.87502414    -0.28300
C714        C  0.84673948  0.20922026  0.88347252    -0.03500
C715        C  0.82553137  0.23128154  0.86340875     0.05100
C716        C  0.80636046  0.20723858  0.84279984     0.03200
H717        H  0.86600660  0.21797779  0.90223620     0.08300
H718        H  0.78727008  0.21428679  0.82309926     0.07100
N719        N  0.89257181  0.42116105  0.90501960    -0.27300
N720        N  0.88945426  0.45260667  0.88727423    -0.35100
C721        C  0.91104987  0.47689012  0.90169387     0.01100
C722        C  0.92834696  0.45972040  0.92985577     0.07100
C723        C  0.91595403  0.42450731  0.93113034    -0.06000
H724        H  0.91360679  0.50502085  0.89273880     0.07800
H725        H  0.92337910  0.40280309  0.94969774     0.09000
Cu726      Cu  0.85430378  0.46050023  0.84587290     0.44200
Cu727      Cu  0.86565601  0.37453938  0.89309689     0.42000
Cu728      Cu  0.79984907  0.38009304  0.82902192     0.43900
N729        N  0.81261937  0.46074804  0.81186209    -0.34700
N730        N  0.79218108  0.43266236  0.80815655    -0.28900
C731        C  0.76673488  0.44274724  0.78659195    -0.05000
C732        C  0.77203084  0.47826147  0.77403302     0.07200
C733        C  0.80095545  0.48903800  0.79181799     0.01000
H734        H  0.74580247  0.42522743  0.78081637     0.08600
H735        H  0.81267169  0.51564130  0.79020966     0.07700
N736        N  0.81589685  0.33023459  0.85060381    -0.36100
N737        N  0.84022484  0.32891932  0.87490334    -0.28300
C738        C  0.84664856  0.29387312  0.88338839    -0.03500
C739        C  0.82546089  0.27172369  0.86340137     0.05100
C740        C  0.80618801  0.29568429  0.84280680     0.03200
H741        H  0.86599993  0.28519706  0.90208366     0.08300
H742        H  0.78709809  0.28855213  0.82313671     0.07100
N743        N  0.89156361  0.92106201  0.59150861    -0.27300
N744        N  0.88840215  0.95246176  0.60933173    -0.35100
C745        C  0.91016409  0.97671584  0.59518263     0.01100
C746        C  0.92762783  0.95958216  0.56712618     0.07100
C747        C  0.91515515  0.92440991  0.56562235    -0.06000
H748        H  0.91277064  0.00478957  0.60429822     0.07800
H749        H  0.92269209  0.90272677  0.54708326     0.09000
Cu750      Cu  0.85318033  0.96032190  0.65069101     0.44200
Cu751      Cu  0.86452345  0.87446861  0.60317834     0.42000
Cu752      Cu  0.79913330  0.87990707  0.66806376     0.43900
N753        N  0.81189186  0.96047966  0.68532872    -0.34700
N754        N  0.79159977  0.93231263  0.68936241    -0.28900
C755        C  0.76645978  0.94224202  0.71145266    -0.05000
C756        C  0.77181115  0.97777120  0.72394106     0.07200
C757        C  0.80043336  0.98869040  0.70563458     0.01000
H758        H  0.74567761  0.92462809  0.71760198     0.08600
H759        H  0.81208283  0.01533910  0.70706793     0.07700
N760        N  0.81502947  0.83016840  0.64609829    -0.36100
N761        N  0.83914163  0.82888009  0.62152395    -0.28300
C762        C  0.84547235  0.79384193  0.61291325    -0.03500
C763        C  0.82445022  0.77168630  0.63310336     0.05100
C764        C  0.80537773  0.79561863  0.65394866     0.03200
H765        H  0.86466344  0.78517471  0.59400716     0.08300
H766        H  0.78646660  0.78846834  0.67382677     0.07100
N767        N  0.89132467  0.58193789  0.59053173    -0.27300
N768        N  0.88805572  0.55041287  0.60810634    -0.35100
C769        C  0.90982038  0.52622188  0.59385318     0.01100
C770        C  0.92739842  0.54351686  0.56598644     0.07100
C771        C  0.91498330  0.57872495  0.56469392    -0.06000
H772        H  0.91237496  0.49808626  0.60279175     0.07800
H773        H  0.92263371  0.60053488  0.54636681     0.09000
Cu774      Cu  0.85278174  0.54231113  0.64938807     0.44200
Cu775      Cu  0.86441366  0.62854477  0.60257422     0.42000
Cu776      Cu  0.79941784  0.62298038  0.66796607     0.43900
N777        N  0.81167435  0.54213603  0.68432224    -0.34700
N778        N  0.79170053  0.57049585  0.68892355    -0.28900
C779        C  0.76666942  0.56063217  0.71119173    -0.05000
C780        C  0.77172589  0.52486613  0.72312415     0.07200
C781        C  0.80008557  0.51381772  0.70438310     0.01000
H782        H  0.74613121  0.57844109  0.71776764     0.08600
H783        H  0.81149245  0.48702074  0.70540230     0.07700
N784        N  0.81519180  0.67274764  0.64601111    -0.36100
N785        N  0.83916264  0.67410016  0.62126957    -0.28300
C786        C  0.84541396  0.70916308  0.61268920    -0.03500
C787        C  0.82447595  0.73125897  0.63306266     0.05100
C788        C  0.80554271  0.70726893  0.65398775     0.03200
H789        H  0.86447669  0.71788659  0.59365071     0.08300
H790        H  0.78672799  0.71435963  0.67400189     0.07100
N791        N  0.60784422  0.08145795  0.59284846    -0.27300
N792        N  0.61089524  0.05003853  0.61066275    -0.35100
C793        C  0.58917712  0.02581406  0.59636189     0.01100
C794        C  0.57185511  0.04298072  0.56821179     0.07100
C795        C  0.58437643  0.07814242  0.56681571    -0.06000
H796        H  0.58655122  0.99771455  0.60538953     0.07800
H797        H  0.57698468  0.09982913  0.54821085     0.09000
Cu798      Cu  0.64606385  0.04206327  0.65207941     0.44200
Cu799      Cu  0.63492084  0.12803835  0.60465212     0.42000
Cu800      Cu  0.70027309  0.12250318  0.66937155     0.43900
N801        N  0.68763019  0.04178837  0.68632592    -0.34700
N802        N  0.70797114  0.06993613  0.69020610    -0.28900
C803        C  0.73337521  0.05989130  0.71184867    -0.05000
C804        C  0.72816347  0.02431791  0.72427502     0.07200
C805        C  0.69932087  0.01348364  0.70634373    -0.04200
H806        H  0.75424202  0.07747038  0.71773194     0.08600
H807        H  0.68769150  0.98682612  0.70782200     0.07700
N808        N  0.68439020  0.17234795  0.64762224    -0.36100
N809        N  0.66028003  0.17366504  0.62305271    -0.28300
C810        C  0.65395193  0.20871850  0.61449391    -0.03500
C811        C  0.67496748  0.23086511  0.63471547     0.05100
C812        C  0.69404137  0.20689496  0.65552603     0.03200
H813        H  0.63476637  0.21740549  0.59559358     0.08300
H814        H  0.71295741  0.21401821  0.67540744     0.07100
N815        N  0.60786941  0.42061094  0.59212294    -0.27300
N816        N  0.61107445  0.45219218  0.60961437    -0.35100
C817        C  0.58938773  0.47635519  0.59515409     0.01100
C818        C  0.57193232  0.45898712  0.56723106     0.07100
C819        C  0.58434109  0.42376576  0.56613126    -0.06000
H820        H  0.58686402  0.50454671  0.60392582     0.07800
H821        H  0.57681653  0.40192467  0.54777762     0.09000
Cu822      Cu  0.64634358  0.46044794  0.65088717     0.44200
Cu823      Cu  0.63480198  0.37403136  0.60433737     0.42000
Cu824      Cu  0.69995600  0.37976191  0.66929097     0.43900
N825        N  0.68776244  0.46074399  0.68537687    -0.34700
N826        N  0.70781710  0.43242060  0.68978377    -0.28900
C827        C  0.73312903  0.44241528  0.71157983    -0.05000
C828        C  0.72818574  0.47821106  0.72348276     0.07200
C829        C  0.69957564  0.48915518  0.70515477     0.01000
H830        H  0.75377961  0.42466031  0.71785314     0.08600
H831        H  0.68816550  0.51594791  0.70624429     0.07700
N832        N  0.68417097  0.32986311  0.64760378    -0.36100
N833        N  0.66012246  0.32846602  0.62296450    -0.28300
C834        C  0.65388881  0.29338901  0.61441780    -0.03500
C835        C  0.67491072  0.27131355  0.63471232     0.05100
C836        C  0.69388366  0.29534928  0.65555809     0.03200
H837        H  0.63478522  0.28463815  0.59544541     0.08300
H838        H  0.71278534  0.28829314  0.67548080     0.07100
N839        N  0.60896852  0.92059153  0.90770513    -0.27300
N840        N  0.61234226  0.95214001  0.89020449    -0.35100
C841        C  0.59063780  0.97637972  0.90447908     0.01100
C842        C  0.57299072  0.95908203  0.93228395     0.07100
C843        C  0.58530071  0.92383032  0.93352178    -0.06000
H844        H  0.58815898  0.00453716  0.89558293     0.07800
H845        H  0.57756174  0.90200411  0.95178362     0.09000
Cu846      Cu  0.64763973  0.96015278  0.84897349     0.44200
Cu847      Cu  0.63578701  0.87395446  0.89561151     0.42000
Cu848      Cu  0.70108807  0.87951106  0.83050566     0.43900
N849        N  0.68869132  0.96031024  0.81400764    -0.34700
N850        N  0.70870701  0.93198524  0.80941530    -0.28900
C851        C  0.73369372  0.94189210  0.78709921    -0.05000
C852        C  0.72854796  0.97764091  0.77513356     0.07200
C853        C  0.70019650  0.98863509  0.79390507     0.01000
H854        H  0.75427093  0.92413580  0.78052972     0.08600
H855        H  0.68874631  0.01540960  0.79289781     0.07700
N856        N  0.68530713  0.82977561  0.85257600    -0.36100
N857        N  0.66121112  0.82843466  0.87716930    -0.28300
C858        C  0.65499218  0.79338542  0.88583229    -0.03500
C859        C  0.67608137  0.77128169  0.86566795     0.05100
C860        C  0.69507092  0.79525285  0.84478299     0.03200
H861        H  0.63584393  0.78467395  0.90477096     0.08300
H862        H  0.71399301  0.78814331  0.82490211     0.07100
N863        N  0.60887255  0.58147874  0.90698069    -0.27300
N864        N  0.61209490  0.55008958  0.88915639    -0.35100
C865        C  0.59034965  0.52579454  0.90325947     0.01100
C866        C  0.57282833  0.54289557  0.93128697     0.07100
C867        C  0.58525308  0.57808666  0.93282648    -0.06000
H868        H  0.58777549  0.49772671  0.89411212     0.07800
H869        H  0.57765003  0.59975846  0.95134611     0.09000
Cu870      Cu  0.64732367  0.54234022  0.84781626     0.44200
Cu871      Cu  0.63587875  0.62809943  0.89534349     0.42000
Cu872      Cu  0.70143421  0.62269922  0.83054036     0.43900
N873        N  0.68852836  0.54220535  0.81309371    -0.34700
N874        N  0.70885121  0.57034261  0.80904956    -0.28900
C875        C  0.73392151  0.56039547  0.78686446    -0.05000
C876        C  0.72847936  0.52488908  0.77434119     0.07200
C877        C  0.69989046  0.51400283  0.79271847     0.01000
H878        H  0.75472859  0.57796738  0.78069625     0.08600
H879        H  0.68820658  0.48737146  0.79130485     0.07700
N880        N  0.68555921  0.67238513  0.85265691    -0.36100
N881        N  0.66138437  0.67366483  0.87715824    -0.28300
C882        C  0.65505998  0.70869891  0.88579532    -0.03500
C883        C  0.67614994  0.73085740  0.86569645     0.05100
C884        C  0.69525968  0.70693413  0.84488831     0.03200
H885        H  0.63580652  0.71736357  0.90462484     0.08300
H886        H  0.71419878  0.71409373  0.82504718     0.07100
C887        C  0.75010348  0.50157020  0.74874879    -0.02500
C888        C  0.75012688  0.00101929  0.74954134    -0.02500
loop_ 
_geom_bond_atom_site_label_1 
_geom_bond_atom_site_label_2 
_geom_bond_distance 
_geom_bond_site_symmetry_2 
_ccdc_geom_bond_type 
O1           C11   1.278       .  A
O1         Cu453   2.010   1_554  S
O2           C12   1.278   1_545  A
O2           Cu9   2.016       .  S
O3           C13   1.278       .  A
O3         Cu453   2.009   1_554  S
O4           C14   1.278   1_545  A
O4           Cu9   2.015       .  S
O5           C14   1.278       .  A
O5         Cu454   2.010       .  S
O6           C13   1.278   1_565  A
O6          Cu10   2.016       .  S
O7           C12   1.278       .  A
O7         Cu454   2.011       .  S
O8           C11   1.278   1_565  A
O8          Cu10   2.018       .  S
Cu9         O445   2.010       .  S
Cu9         O447   2.009       .  S
Cu9        Cu454   2.375   1_545  S
Cu10        O449   2.010   1_554  S
Cu10        O451   2.011   1_554  S
Cu10       Cu453   2.375   1_564  S
C11         C350   1.472       .  S
C12          C80   1.472       .  S
C13         C177   1.471       .  S
C14         C398   1.471       .  S
O15          C25   1.278       .  A
O15         Cu23   2.016       .  S
O16          C26   1.278       .  A
O16        Cu467   2.010   1_554  S
O17          C27   1.278       .  A
O17         Cu23   2.017       .  S
O18          C28   1.278       .  A
O18        Cu467   2.011   1_554  S
O19          C28   1.278       .  A
O19         Cu24   2.017       .  S
O20          C27   1.278       .  A
O20        Cu468   2.010       .  S
O21          C26   1.278       .  A
O21         Cu24   2.016       .  S
O22          C25   1.278       .  A
O22        Cu468   2.009       .  S
Cu23        O460   2.010       .  S
Cu23        O462   2.011       .  S
Cu23       Cu468   2.375       .  S
Cu24        O464   2.010   1_554  S
Cu24        O466   2.009   1_554  S
Cu24       Cu467   2.375   1_554  S
C25         C422   1.471       .  S
C26         C201   1.471       .  S
C27         C104   1.471       .  S
C28         C374   1.472       .  S
N29          N30   1.322       .  A
N29          C33   1.343       .  A
N29         Cu37   2.065       .  S
N30          C31   1.349       .  A
N30         Cu36   2.086       .  S
C31          C32   1.387       .  A
C31          H34   1.082   1_545  S
C32         C248   1.471       .  S
C32          C33   1.380       .  A
C33          H35   1.082       .  S
Cu36         N39   2.086       .  S
Cu37         N47   2.065       .  S
Cu38         N40   2.085       .  S
Cu38         N46   2.084       .  S
N39          N40   1.323       .  A
N39          C43   1.348       .  A
N40          C41   1.343       .  A
C41          C42   1.391       .  A
C41          H44   1.080       .  S
C42          C43   1.391       .  A
C42         C222   1.532       .  S
C43          H45   1.082   1_545  S
N46          N47   1.320       .  A
N46          C50   1.351       .  A
N47          C48   1.341       .  A
C48          C49   1.382       .  A
C48          H51   1.082       .  S
C49          C73   1.476       .  S
C49          C50   1.388       .  A
C50          H52   1.082       .  S
N53          N54   1.322       .  A
N53          C57   1.343       .  A
N53         Cu61   2.066       .  S
N54          C55   1.349       .  A
N54         Cu60   2.085       .  S
C55          C56   1.387       .  A
C55          H58   1.082       .  S
C56         C233   1.471       .  S
C56          C57   1.381       .  A
C57          H59   1.082       .  S
Cu60         N63   2.086       .  S
Cu61         N71   2.065       .  S
Cu62         N64   2.085       .  S
Cu62         N70   2.084       .  S
N63          N64   1.323       .  A
N63          C67   1.348       .  A
N64          C65   1.343       .  A
C65          C66   1.391       .  A
C65          H68   1.080       .  S
C66          C67   1.390       .  A
C66         C173   1.532       .  S
C67          H69   1.082       .  S
N70          N71   1.320       .  A
N70          C74   1.351       .  A
N71          C72   1.341       .  A
C72          C73   1.382       .  A
C72          H75   1.082       .  S
C73          C74   1.388       .  A
C74          H76   1.082       .  S
N77          N78   1.322       .  A
N77          C81   1.343       .  A
N77         Cu85   2.065       .  S
N78          C79   1.349       .  A
N78         Cu84   2.087       .  S
C79          C80   1.387       .  A
C79          H82   1.082   1_565  S
C80          C81   1.380       .  A
C81          H83   1.082       .  S
Cu84         N87   2.088       .  S
Cu85         N95   2.065       .  S
Cu86         N88   2.084       .  S
Cu86         N94   2.083       .  S
N87          N88   1.323       .  A
N87          C91   1.348       .  A
N88          C89   1.342       .  A
C89          C90   1.390       .  A
C89          H92   1.080       .  S
C90          C91   1.391       .  A
C90         C222   1.532   1_565  S
C91          H93   1.082   1_565  S
N94          N95   1.320       .  A
N94          C98   1.351       .  A
N95          C96   1.341       .  A
C96          C97   1.382       .  A
C96          H99   1.082       .  S
C97         C121   1.476       .  S
C97          C98   1.388       .  A
C98         H100   1.082       .  S
N101        N102   1.322       .  A
N101        C105   1.343       .  A
N101       Cu109   2.065       .  S
N102        C103   1.349       .  A
N102       Cu108   2.087       .  S
C103        C104   1.387       .  A
C103        H106   1.082       .  S
C104        C105   1.380       .  A
C105        H107   1.082       .  S
Cu108       N111   2.087       .  S
Cu109       N119   2.065       .  S
Cu110       N112   2.085       .  S
Cu110       N118   2.084       .  S
N111        N112   1.323       .  A
N111        C115   1.348       .  A
N112        C113   1.342       .  A
C113        C114   1.391       .  A
C113        H116   1.080       .  S
C114        C115   1.391       .  A
C114        C173   1.532       .  S
C115        H117   1.082       .  S
N118        N119   1.320       .  A
N118        C122   1.351       .  A
N119        C120   1.341       .  A
C120        C121   1.382       .  A
C120        H123   1.082       .  S
C121        C122   1.388       .  A
C122        H124   1.082       .  S
N125        N126   1.322       .  A
N125        C129   1.343       .  A
N125       Cu133   2.065       .  S
N126        C127   1.349       .  A
N126       Cu132   2.086       .  S
C127        C128   1.387       .  A
C127        H130   1.082   1_565  S
C128        C249   1.471       .  S
C128        C129   1.380       .  A
C129        H131   1.082       .  S
Cu132       N135   2.087       .  S
Cu133       N143   2.064       .  S
Cu134       N136   2.085       .  S
Cu134       N142   2.083       .  S
N135        N136   1.323       .  A
N135        C139   1.348       .  A
N136        C137   1.342       .  A
C137        C138   1.391       .  A
C137        H140   1.080       .  S
C138        C139   1.391       .  A
C138        C222   1.532   1_565  S
C139        H141   1.082   1_565  S
N142        N143   1.320       .  A
N142        C146   1.351       .  A
N143        C144   1.341       .  A
C144        C145   1.382       .  A
C144        H147   1.082       .  S
C145        C169   1.476       .  S
C145        C146   1.388       .  A
C146        H148   1.082       .  S
N149        N150   1.322       .  A
N149        C153   1.343       .  A
N149       Cu157   2.065       .  S
N150        C151   1.349       .  A
N150       Cu156   2.087       .  S
C151        C152   1.387       .  A
C151        H154   1.082       .  S
C152        C236   1.471       .  S
C152        C153   1.380       .  A
C153        H155   1.082       .  S
Cu156       N159   2.088       .  S
Cu157       N167   2.064       .  S
Cu158       N160   2.085       .  S
Cu158       N166   2.083       .  S
N159        N160   1.323       .  A
N159        C163   1.348       .  A
N160        C161   1.342       .  A
C161        C162   1.391       .  A
C161        H164   1.080       .  S
C162        C163   1.391       .  A
C162        C173   1.533       .  S
C163        H165   1.082       .  S
N166        N167   1.320       .  A
N166        C170   1.351       .  A
N167        C168   1.341       .  A
C168        C169   1.382       .  A
C168        H171   1.082       .  S
C169        C170   1.388       .  A
C170        H172   1.082       .  S
C173        C211   1.532       .  S
N174        N175   1.322       .  A
N174        C178   1.343       .  A
N174       Cu182   2.065       .  S
N175        C176   1.349       .  A
N175       Cu181   2.085       .  S
C176        C177   1.387       .  A
C176        H179   1.082   1_545  S
C177        C178   1.380       .  A
C178        H180   1.082       .  S
Cu181       N184   2.085       .  S
Cu182       N192   2.065       .  S
Cu183       N185   2.085       .  S
Cu183       N191   2.084       .  S
N184        N185   1.323       .  A
N184        C188   1.348       .  A
N185        C186   1.343       .  A
C186        C187   1.391       .  A
C186        H189   1.080       .  S
C187        C188   1.390       .  A
C187        C222   1.532       .  S
C188        H190   1.082   1_545  S
N191        N192   1.320       .  A
N191        C195   1.351       .  A
N192        C193   1.341       .  A
C193        C194   1.382       .  A
C193        H196   1.082       .  S
C194        C218   1.476       .  S
C194        C195   1.388       .  A
C195        H197   1.082       .  S
N198        N199   1.322       .  A
N198        C202   1.343       .  A
N198       Cu206   2.065       .  S
N199        C200   1.349       .  A
N199       Cu205   2.086       .  S
C200        C201   1.387       .  A
C200        H203   1.082       .  S
C201        C202   1.380       .  A
C202        H204   1.082       .  S
Cu205       N208   2.086       .  S
Cu206       N216   2.065       .  S
Cu207       N209   2.085       .  S
Cu207       N215   2.084       .  S
N208        N209   1.323       .  A
N208        C212   1.348       .  A
N209        C210   1.343       .  A
C210        C211   1.391       .  A
C210        H213   1.080       .  S
C211        C212   1.391       .  A
C212        H214   1.082       .  S
N215        N216   1.320       .  A
N215        C219   1.350       .  A
N216        C217   1.341       .  A
C217        C218   1.382       .  A
C217        H220   1.082       .  S
C218        C219   1.388       .  A
C219        H221   1.082       .  S
O223        C233   1.278       .  A
O223       Cu675   2.009   1_455  S
O224        C234   1.278       .  A
O224       Cu231   2.016       .  S
O225        C235   1.278       .  A
O225       Cu675   2.009       .  S
O226        C236   1.277       .  A
O226       Cu231   2.016   1_455  S
O227        C236   1.278       .  A
O227       Cu676   2.011   1_554  S
O228        C235   1.278       .  A
O228       Cu232   2.017   1_655  S
O229        C234   1.278       .  A
O229       Cu676   2.010   1_654  S
O230        C233   1.278       .  A
O230       Cu232   2.017       .  S
Cu231       O667   2.009   1_654  S
Cu231       O669   2.009   1_554  S
Cu231      Cu676   2.375   1_654  S
Cu232       O671   2.011       .  S
Cu232       O673   2.010   1_455  S
Cu232      Cu675   2.375   1_455  S
C234        C326   1.471       .  S
C235        C278   1.471       .  S
O237        C247   1.278       .  A
O237       Cu689   2.009   1_654  S
O238        C248   1.278   1_565  A
O238       Cu245   2.016       .  S
O239        C249   1.278       .  A
O239       Cu689   2.010   1_554  S
O240        C250   1.278   1_565  A
O240       Cu245   2.016   1_655  S
O241        C250   1.278       .  A
O241       Cu690   2.010   1_655  S
O242        C249   1.278   1_545  A
O242       Cu246   2.016       .  S
O243        C248   1.278       .  A
O243       Cu690   2.010       .  S
O244        C247   1.278   1_545  A
O244       Cu246   2.017   1_655  S
Cu245       O681   2.009   1_455  S
Cu245       O683   2.010       .  S
Cu245      Cu690   2.375   1_565  S
Cu246       O685   2.010   1_454  S
Cu246       O687   2.010   1_554  S
Cu246      Cu689   2.375   1_544  S
C247        C302   1.471       .  S
C250        C254   1.471       .  S
N251        N252   1.322       .  A
N251        C255   1.343       .  A
N251       Cu259   2.066       .  S
N252        C253   1.349       .  A
N252       Cu258   2.086       .  S
C253        C254   1.387       .  A
C253        H256   1.082   1_545  S
C254        C255   1.380       .  A
C255        H257   1.082       .  S
Cu258       N261   2.087       .  S
Cu259       N269   2.065       .  S
Cu260       N262   2.086       .  S
Cu260       N268   2.084       .  S
N261        N262   1.323       .  A
N261        C265   1.348       .  A
N262        C263   1.342       .  A
C263        C264   1.391       .  A
C263        H266   1.080       .  S
C264        C265   1.391       .  A
C264        C444   1.533       .  S
C265        H267   1.082   1_545  S
N268        N269   1.320       .  A
N268        C272   1.351       .  A
N269        C270   1.341       .  A
C270        C271   1.382       .  A
C270        H273   1.082       .  S
C271        C295   1.477       .  S
C271        C272   1.388       .  A
C272        H274   1.082       .  S
N275        N276   1.322       .  A
N275        C279   1.342       .  A
N275       Cu283   2.065       .  S
N276        C277   1.349       .  A
N276       Cu282   2.086       .  S
C277        C278   1.387       .  A
C277        H280   1.082       .  S
C278        C279   1.380       .  A
C279        H281   1.082       .  S
Cu282       N285   2.086       .  S
Cu283       N293   2.065       .  S
Cu284       N286   2.086       .  S
Cu284       N292   2.085       .  S
N285        N286   1.323       .  A
N285        C289   1.348       .  A
N286        C287   1.342       .  A
C287        C288   1.391       .  A
C287        H290   1.080       .  S
C288        C289   1.391       .  A
C288        C443   1.532       .  S
C289        H291   1.082       .  S
N292        N293   1.320       .  A
N292        C296   1.351       .  A
N293        C294   1.341       .  A
C294        C295   1.382       .  A
C294        H297   1.082       .  S
C295        C296   1.389       .  A
C296        H298   1.082       .  S
N299        N300   1.322       .  A
N299        C303   1.343       .  A
N299       Cu307   2.065       .  S
N300        C301   1.349       .  A
N300       Cu306   2.086       .  S
C301        C302   1.387       .  A
C301        H304   1.082   1_565  S
C302        C303   1.380       .  A
C303        H305   1.082       .  S
Cu306       N309   2.087       .  S
Cu307       N317   2.065       .  S
Cu308       N310   2.086       .  S
Cu308       N316   2.084       .  S
N309        N310   1.323       .  A
N309        C313   1.348       .  A
N310        C311   1.343       .  A
C311        C312   1.391       .  A
C311        H314   1.080       .  S
C312        C313   1.391       .  A
C312        C444   1.532   1_565  S
C313        H315   1.082   1_565  S
N316        N317   1.320       .  A
N316        C320   1.351       .  A
N317        C318   1.341       .  A
C318        C319   1.382       .  A
C318        H321   1.082       .  S
C319        C343   1.476       .  S
C319        C320   1.388       .  A
C320        H322   1.082       .  S
N323        N324   1.322       .  A
N323        C327   1.343       .  A
N323       Cu331   2.065       .  S
N324        C325   1.349       .  A
N324       Cu330   2.087       .  S
C325        C326   1.387       .  A
C325        H328   1.082       .  S
C326        C327   1.380       .  A
C327        H329   1.082       .  S
Cu330       N333   2.088       .  S
Cu331       N341   2.065       .  S
Cu332       N334   2.085       .  S
Cu332       N340   2.083       .  S
N333        N334   1.323       .  A
N333        C337   1.348       .  A
N334        C335   1.343       .  A
C335        C336   1.391       .  A
C335        H338   1.080       .  S
C336        C337   1.391       .  A
C336        C443   1.533       .  S
C337        H339   1.082       .  S
N340        N341   1.320       .  A
N340        C344   1.350       .  A
N341        C342   1.341       .  A
C342        C343   1.382       .  A
C342        H345   1.082       .  S
C343        C344   1.388       .  A
C344        H346   1.082       .  S
N347        N348   1.322       .  A
N347        C351   1.343       .  A
N347       Cu355   2.066       .  S
N348        C349   1.349       .  A
N348       Cu354   2.087       .  S
C349        C350   1.387       .  A
C349        H352   1.082   1_545  S
C350        C351   1.381       .  A
C351        H353   1.082       .  S
Cu354       N357   2.087       .  S
Cu355       N365   2.066       .  S
Cu356       N358   2.086       .  S
Cu356       N364   2.084       .  S
N357        N358   1.323       .  A
N357        C361   1.348       .  A
N358        C359   1.342       .  A
C359        C360   1.391       .  A
C359        H362   1.080       .  S
C360        C361   1.391       .  A
C360        C444   1.533       .  S
C361        H363   1.082   1_545  S
N364        N365   1.320       .  A
N364        C368   1.351       .  A
N365        C366   1.341       .  A
C366        C367   1.382       .  A
C366        H369   1.082       .  S
C367        C391   1.477       .  S
C367        C368   1.389       .  A
C368        H370   1.082       .  S
N371        N372   1.322       .  A
N371        C375   1.343       .  A
N371       Cu379   2.066       .  S
N372        C373   1.349       .  A
N372       Cu378   2.088       .  S
C373        C374   1.387       .  A
C373        H376   1.082       .  S
C374        C375   1.381       .  A
C375        H377   1.082       .  S
Cu378       N381   2.088       .  S
Cu379       N389   2.066       .  S
Cu380       N382   2.085       .  S
Cu380       N388   2.084       .  S
N381        N382   1.323       .  A
N381        C385   1.348       .  A
N382        C383   1.342       .  A
C383        C384   1.391       .  A
C383        H386   1.080       .  S
C384        C385   1.391       .  A
C384        C443   1.533       .  S
C385        H387   1.082       .  S
N388        N389   1.320       .  A
N388        C392   1.351       .  A
N389        C390   1.341       .  A
C390        C391   1.382       .  A
C390        H393   1.082       .  S
C391        C392   1.389       .  A
C392        H394   1.082       .  S
N395        N396   1.322       .  A
N395        C399   1.343       .  A
N395       Cu403   2.065       .  S
N396        C397   1.349       .  A
N396       Cu402   2.086       .  S
C397        C398   1.387       .  A
C397        H400   1.082   1_565  S
C398        C399   1.380       .  A
C399        H401   1.082       .  S
Cu402       N405   2.086       .  S
Cu403       N413   2.064       .  S
Cu404       N406   2.086       .  S
Cu404       N412   2.084       .  S
N405        N406   1.323       .  A
N405        C409   1.348       .  A
N406        C407   1.343       .  A
C407        C408   1.391       .  A
C407        H410   1.080       .  S
C408        C409   1.391       .  A
C408        C444   1.532   1_565  S
C409        H411   1.082   1_565  S
N412        N413   1.320       .  A
N412        C416   1.350       .  A
N413        C414   1.341       .  A
C414        C415   1.382       .  A
C414        H417   1.082       .  S
C415        C439   1.476       .  S
C415        C416   1.388       .  A
C416        H418   1.082       .  S
N419        N420   1.322       .  A
N419        C423   1.343       .  A
N419       Cu427   2.065       .  S
N420        C421   1.349       .  A
N420       Cu426   2.085       .  S
C421        C422   1.387       .  A
C421        H424   1.082       .  S
C422        C423   1.380       .  A
C423        H425   1.082       .  S
Cu426       N429   2.086       .  S
Cu427       N437   2.065       .  S
Cu428       N430   2.086       .  S
Cu428       N436   2.084       .  S
N429        N430   1.323       .  A
N429        C433   1.348       .  A
N430        C431   1.343       .  A
C431        C432   1.391       .  A
C431        H434   1.080       .  S
C432        C433   1.391       .  A
C432        C443   1.532       .  S
C433        H435   1.082       .  S
N436        N437   1.320       .  A
N436        C440   1.350       .  A
N437        C438   1.341       .  A
C438        C439   1.382       .  A
C438        H441   1.082       .  S
C439        C440   1.388       .  A
C440        H442   1.082       .  S
O445        C455   1.278       .  A
O446        C456   1.278   1_545  A
O446       Cu453   2.016       .  S
O447        C457   1.278       .  A
O448        C458   1.278   1_545  A
O448       Cu453   2.015       .  S
O449        C458   1.278       .  A
O450        C457   1.278   1_565  A
O450       Cu454   2.016       .  S
O451        C456   1.278       .  A
O452        C455   1.278   1_565  A
O452       Cu454   2.018       .  S
C455        C794   1.472       .  S
C456        C524   1.472       .  S
C457        C621   1.471       .  S
C458        C842   1.471       .  S
O459        C469   1.278       .  A
O459       Cu467   2.016       .  S
O460        C470   1.278       .  A
O461        C471   1.278       .  A
O461       Cu467   2.017       .  S
O462        C472   1.278       .  A
O463        C472   1.278       .  A
O463       Cu468   2.017       .  S
O464        C471   1.278       .  A
O465        C470   1.278       .  A
O465       Cu468   2.016       .  S
O466        C469   1.278       .  A
C469        C866   1.471       .  S
C470        C645   1.471       .  S
C471        C548   1.471       .  S
C472        C818   1.472       .  S
N473        N474   1.322       .  A
N473        C477   1.343       .  A
N473       Cu481   2.065       .  S
N474        C475   1.349       .  A
N474       Cu480   2.086       .  S
C475        C476   1.387       .  A
C475        H478   1.082   1_545  S
C476        C692   1.471       .  S
C476        C477   1.380       .  A
C477        H479   1.082       .  S
Cu480       N483   2.086       .  S
Cu481       N491   2.065       .  S
Cu482       N484   2.085       .  S
Cu482       N490   2.084       .  S
N483        N484   1.323       .  A
N483        C487   1.348       .  A
N484        C485   1.343       .  A
C485        C486   1.391       .  A
C485        H488   1.080       .  S
C486        C487   1.391       .  A
C486        C666   1.532       .  S
C487        H489   1.082   1_545  S
N490        N491   1.320       .  A
N490        C494   1.351       .  A
N491        C492   1.341       .  A
C492        C493   1.382       .  A
C492        H495   1.082       .  S
C493        C517   1.476       .  S
C493        C494   1.388       .  A
C494        H496   1.082       .  S
N497        N498   1.322       .  A
N497        C501   1.343       .  A
N497       Cu505   2.066       .  S
N498        C499   1.349       .  A
N498       Cu504   2.085       .  S
C499        C500   1.387       .  A
C499        H502   1.082       .  S
C500        C677   1.471       .  S
C500        C501   1.381       .  A
C501        H503   1.082       .  S
Cu504       N507   2.086       .  S
Cu505       N515   2.065       .  S
Cu506       N508   2.085       .  S
Cu506       N514   2.084       .  S
N507        N508   1.323       .  A
N507        C511   1.348       .  A
N508        C509   1.343       .  A
C509        C510   1.391       .  A
C509        H512   1.080       .  S
C510        C511   1.390       .  A
C510        C617   1.532       .  S
C511        H513   1.082       .  S
N514        N515   1.320       .  A
N514        C518   1.351       .  A
N515        C516   1.341       .  A
C516        C517   1.382       .  A
C516        H519   1.082       .  S
C517        C518   1.388       .  A
C518        H520   1.082       .  S
N521        N522   1.322       .  A
N521        C525   1.343       .  A
N521       Cu529   2.065       .  S
N522        C523   1.349       .  A
N522       Cu528   2.087       .  S
C523        C524   1.387       .  A
C523        H526   1.082   1_565  S
C524        C525   1.380       .  A
C525        H527   1.082       .  S
Cu528       N531   2.088       .  S
Cu529       N539   2.065       .  S
Cu530       N532   2.084       .  S
Cu530       N538   2.083       .  S
N531        N532   1.323       .  A
N531        C535   1.348       .  A
N532        C533   1.342       .  A
C533        C534   1.390       .  A
C533        H536   1.080       .  S
C534        C535   1.391       .  A
C534        C666   1.532   1_565  S
C535        H537   1.082   1_565  S
N538        N539   1.320       .  A
N538        C542   1.351       .  A
N539        C540   1.341       .  A
C540        C541   1.382       .  A
C540        H543   1.082       .  S
C541        C565   1.476       .  S
C541        C542   1.388       .  A
C542        H544   1.082       .  S
N545        N546   1.322       .  A
N545        C549   1.343       .  A
N545       Cu553   2.065       .  S
N546        C547   1.349       .  A
N546       Cu552   2.087       .  S
C547        C548   1.387       .  A
C547        H550   1.082       .  S
C548        C549   1.380       .  A
C549        H551   1.082       .  S
Cu552       N555   2.087       .  S
Cu553       N563   2.065       .  S
Cu554       N556   2.085       .  S
Cu554       N562   2.084       .  S
N555        N556   1.323       .  A
N555        C559   1.348       .  A
N556        C557   1.342       .  A
C557        C558   1.391       .  A
C557        H560   1.080       .  S
C558        C559   1.391       .  A
C558        C617   1.532       .  S
C559        H561   1.082       .  S
N562        N563   1.320       .  A
N562        C566   1.351       .  A
N563        C564   1.341       .  A
C564        C565   1.382       .  A
C564        H567   1.082       .  S
C565        C566   1.388       .  A
C566        H568   1.082       .  S
N569        N570   1.322       .  A
N569        C573   1.343       .  A
N569       Cu577   2.065       .  S
N570        C571   1.349       .  A
N570       Cu576   2.086       .  S
C571        C572   1.387       .  A
C571        H574   1.082   1_565  S
C572        C693   1.471       .  S
C572        C573   1.380       .  A
C573        H575   1.082       .  S
Cu576       N579   2.087       .  S
Cu577       N587   2.064       .  S
Cu578       N580   2.085       .  S
Cu578       N586   2.083       .  S
N579        N580   1.323       .  A
N579        C583   1.348       .  A
N580        C581   1.342       .  A
C581        C582   1.391       .  A
C581        H584   1.080       .  S
C582        C583   1.391       .  A
C582        C666   1.532   1_565  S
C583        H585   1.082   1_565  S
N586        N587   1.320       .  A
N586        C590   1.351       .  A
N587        C588   1.341       .  A
C588        C589   1.382       .  A
C588        H591   1.082       .  S
C589        C613   1.476       .  S
C589        C590   1.388       .  A
C590        H592   1.082       .  S
N593        N594   1.322       .  A
N593        C597   1.343       .  A
N593       Cu601   2.065       .  S
N594        C595   1.349       .  A
N594       Cu600   2.087       .  S
C595        C596   1.387       .  A
C595        H598   1.082       .  S
C596        C680   1.471       .  S
C596        C597   1.380       .  A
C597        H599   1.082       .  S
Cu600       N603   2.087       .  S
Cu601       N611   2.064       .  S
Cu602       N604   2.085       .  S
Cu602       N610   2.083       .  S
N603        N604   1.323       .  A
N603        C607   1.348       .  A
N604        C605   1.342       .  A
C605        C606   1.391       .  A
C605        H608   1.080       .  S
C606        C607   1.391       .  A
C606        C617   1.533       .  S
C607        H609   1.082       .  S
N610        N611   1.320       .  A
N610        C614   1.351       .  A
N611        C612   1.341       .  A
C612        C613   1.382       .  A
C612        H615   1.082       .  S
C613        C614   1.388       .  A
C614        H616   1.082       .  S
C617        C655   1.532       .  S
N618        N619   1.322       .  A
N618        C622   1.343       .  A
N618       Cu626   2.065       .  S
N619        C620   1.349       .  A
N619       Cu625   2.085       .  S
C620        C621   1.387       .  A
C620        H623   1.082   1_545  S
C621        C622   1.380       .  A
C622        H624   1.082       .  S
Cu625       N628   2.085       .  S
Cu626       N636   2.065       .  S
Cu627       N629   2.085       .  S
Cu627       N635   2.084       .  S
N628        N629   1.323       .  A
N628        C632   1.348       .  A
N629        C630   1.343       .  A
C630        C631   1.391       .  A
C630        H633   1.080       .  S
C631        C632   1.390       .  A
C631        C666   1.532       .  S
C632        H634   1.082   1_545  S
N635        N636   1.320       .  A
N635        C639   1.351       .  A
N636        C637   1.341       .  A
C637        C638   1.382       .  A
C637        H640   1.082       .  S
C638        C662   1.476       .  S
C638        C639   1.388       .  A
C639        H641   1.082       .  S
N642        N643   1.322       .  A
N642        C646   1.343       .  A
N642       Cu650   2.065       .  S
N643        C644   1.349       .  A
N643       Cu649   2.086       .  S
C644        C645   1.387       .  A
C644        H647   1.082       .  S
C645        C646   1.380       .  A
C646        H648   1.082       .  S
Cu649       N652   2.086       .  S
Cu650       N660   2.065       .  S
Cu651       N653   2.085       .  S
Cu651       N659   2.084       .  S
N652        N653   1.323       .  A
N652        C656   1.348       .  A
N653        C654   1.343       .  A
C654        C655   1.391       .  A
C654        H657   1.080       .  S
C655        C656   1.391       .  A
C656        H658   1.082       .  S
N659        N660   1.320       .  A
N659        C663   1.350       .  A
N660        C661   1.341       .  A
C661        C662   1.382       .  A
C661        H664   1.082       .  S
C662        C663   1.388       .  A
C663        H665   1.082       .  S
O667        C677   1.278       .  A
O668        C678   1.278       .  A
O668       Cu675   2.016       .  S
O669        C679   1.278       .  A
O670        C680   1.277       .  A
O670       Cu675   2.016   1_455  S
O671        C680   1.278       .  A
O672        C679   1.278       .  A
O672       Cu676   2.017   1_655  S
O673        C678   1.278       .  A
O674        C677   1.278       .  A
O674       Cu676   2.017       .  S
C678        C770   1.471       .  S
C679        C722   1.471       .  S
O681        C691   1.278       .  A
O682        C692   1.278   1_565  A
O682       Cu689   2.016       .  S
O683        C693   1.278       .  A
O684        C694   1.278   1_565  A
O684       Cu689   2.016   1_655  S
O685        C694   1.278       .  A
O686        C693   1.278   1_545  A
O686       Cu690   2.016       .  S
O687        C692   1.278       .  A
O688        C691   1.278   1_545  A
O688       Cu690   2.017   1_655  S
C691        C746   1.471       .  S
C694        C698   1.471       .  S
N695        N696   1.322       .  A
N695        C699   1.343       .  A
N695       Cu703   2.066       .  S
N696        C697   1.349       .  A
N696       Cu702   2.086       .  S
C697        C698   1.387       .  A
C697        H700   1.082   1_545  S
C698        C699   1.380       .  A
C699        H701   1.082       .  S
Cu702       N705   2.087       .  S
Cu703       N713   2.065       .  S
Cu704       N706   2.086       .  S
Cu704       N712   2.084       .  S
N705        N706   1.323       .  A
N705        C709   1.348       .  A
N706        C707   1.342       .  A
C707        C708   1.391       .  A
C707        H710   1.080       .  S
C708        C709   1.391       .  A
C708        C888   1.533       .  S
C709        H711   1.082   1_545  S
N712        N713   1.320       .  A
N712        C716   1.351       .  A
N713        C714   1.341       .  A
C714        C715   1.382       .  A
C714        H717   1.082       .  S
C715        C739   1.477       .  S
C715        C716   1.388       .  A
C716        H718   1.082       .  S
N719        N720   1.322       .  A
N719        C723   1.342       .  A
N719       Cu727   2.065       .  S
N720        C721   1.349       .  A
N720       Cu726   2.086       .  S
C721        C722   1.387       .  A
C721        H724   1.082       .  S
C722        C723   1.380       .  A
C723        H725   1.082       .  S
Cu726       N729   2.086       .  S
Cu727       N737   2.065       .  S
Cu728       N730   2.086       .  S
Cu728       N736   2.085       .  S
N729        N730   1.323       .  A
N729        C733   1.348       .  A
N730        C731   1.342       .  A
C731        C732   1.391       .  A
C731        H734   1.080       .  S
C732        C733   1.391       .  A
C732        C887   1.532       .  S
C733        H735   1.082       .  S
N736        N737   1.320       .  A
N736        C740   1.351       .  A
N737        C738   1.341       .  A
C738        C739   1.382       .  A
C738        H741   1.082       .  S
C739        C740   1.389       .  A
C740        H742   1.082       .  S
N743        N744   1.322       .  A
N743        C747   1.343       .  A
N743       Cu751   2.065       .  S
N744        C745   1.349       .  A
N744       Cu750   2.086       .  S
C745        C746   1.387       .  A
C745        H748   1.082   1_565  S
C746        C747   1.380       .  A
C747        H749   1.082       .  S
Cu750       N753   2.087       .  S
Cu751       N761   2.065       .  S
Cu752       N754   2.086       .  S
Cu752       N760   2.084       .  S
N753        N754   1.323       .  A
N753        C757   1.348       .  A
N754        C755   1.343       .  A
C755        C756   1.391       .  A
C755        H758   1.080       .  S
C756        C757   1.391       .  A
C756        C888   1.532   1_565  S
C757        H759   1.082   1_565  S
N760        N761   1.320       .  A
N760        C764   1.351       .  A
N761        C762   1.341       .  A
C762        C763   1.382       .  A
C762        H765   1.082       .  S
C763        C787   1.476       .  S
C763        C764   1.388       .  A
C764        H766   1.082       .  S
N767        N768   1.322       .  A
N767        C771   1.343       .  A
N767       Cu775   2.065       .  S
N768        C769   1.349       .  A
N768       Cu774   2.087       .  S
C769        C770   1.387       .  A
C769        H772   1.082       .  S
C770        C771   1.380       .  A
C771        H773   1.082       .  S
Cu774       N777   2.088       .  S
Cu775       N785   2.065       .  S
Cu776       N778   2.085       .  S
Cu776       N784   2.083       .  S
N777        N778   1.323       .  A
N777        C781   1.348       .  A
N778        C779   1.343       .  A
C779        C780   1.391       .  A
C779        H782   1.080       .  S
C780        C781   1.391       .  A
C780        C887   1.533       .  S
C781        H783   1.082       .  S
N784        N785   1.320       .  A
N784        C788   1.350       .  A
N785        C786   1.341       .  A
C786        C787   1.382       .  A
C786        H789   1.082       .  S
C787        C788   1.388       .  A
C788        H790   1.082       .  S
N791        N792   1.322       .  A
N791        C795   1.343       .  A
N791       Cu799   2.066       .  S
N792        C793   1.349       .  A
N792       Cu798   2.087       .  S
C793        C794   1.387       .  A
C793        H796   1.082   1_545  S
C794        C795   1.381       .  A
C795        H797   1.082       .  S
Cu798       N801   2.087       .  S
Cu799       N809   2.066       .  S
Cu800       N802   2.086       .  S
Cu800       N808   2.084       .  S
N801        N802   1.323       .  A
N801        C805   1.348       .  A
N802        C803   1.342       .  A
C803        C804   1.391       .  A
C803        H806   1.080       .  S
C804        C805   1.391       .  A
C804        C888   1.533       .  S
C805        H807   1.082   1_545  S
N808        N809   1.320       .  A
N808        C812   1.351       .  A
N809        C810   1.341       .  A
C810        C811   1.382       .  A
C810        H813   1.082       .  S
C811        C835   1.477       .  S
C811        C812   1.389       .  A
C812        H814   1.082       .  S
N815        N816   1.322       .  A
N815        C819   1.343       .  A
N815       Cu823   2.066       .  S
N816        C817   1.349       .  A
N816       Cu822   2.088       .  S
C817        C818   1.387       .  A
C817        H820   1.082       .  S
C818        C819   1.381       .  A
C819        H821   1.082       .  S
Cu822       N825   2.088       .  S
Cu823       N833   2.066       .  S
Cu824       N826   2.085       .  S
Cu824       N832   2.084       .  S
N825        N826   1.323       .  A
N825        C829   1.348       .  A
N826        C827   1.342       .  A
C827        C828   1.391       .  A
C827        H830   1.080       .  S
C828        C829   1.391       .  A
C828        C887   1.533       .  S
C829        H831   1.082       .  S
N832        N833   1.320       .  A
N832        C836   1.351       .  A
N833        C834   1.341       .  A
C834        C835   1.382       .  A
C834        H837   1.082       .  S
C835        C836   1.389       .  A
C836        H838   1.082       .  S
N839        N840   1.322       .  A
N839        C843   1.343       .  A
N839       Cu847   2.065       .  S
N840        C841   1.349       .  A
N840       Cu846   2.086       .  S
C841        C842   1.387       .  A
C841        H844   1.082   1_565  S
C842        C843   1.380       .  A
C843        H845   1.082       .  S
Cu846       N849   2.086       .  S
Cu847       N857   2.064       .  S
Cu848       N850   2.086       .  S
Cu848       N856   2.084       .  S
N849        N850   1.323       .  A
N849        C853   1.348       .  A
N850        C851   1.343       .  A
C851        C852   1.391       .  A
C851        H854   1.080       .  S
C852        C853   1.391       .  A
C852        C888   1.532   1_565  S
C853        H855   1.082   1_565  S
N856        N857   1.320       .  A
N856        C860   1.350       .  A
N857        C858   1.341       .  A
C858        C859   1.382       .  A
C858        H861   1.082       .  S
C859        C883   1.476       .  S
C859        C860   1.388       .  A
C860        H862   1.082       .  S
N863        N864   1.322       .  A
N863        C867   1.343       .  A
N863       Cu871   2.065       .  S
N864        C865   1.349       .  A
N864       Cu870   2.085       .  S
C865        C866   1.387       .  A
C865        H868   1.082       .  S
C866        C867   1.380       .  A
C867        H869   1.082       .  S
Cu870       N873   2.086       .  S
Cu871       N881   2.065       .  S
Cu872       N874   2.086       .  S
Cu872       N880   2.084       .  S
N873        N874   1.323       .  A
N873        C877   1.348       .  A
N874        C875   1.343       .  A
C875        C876   1.391       .  A
C875        H878   1.080       .  S
C876        C877   1.391       .  A
C876        C887   1.532       .  S
C877        H879   1.082       .  S
N880        N881   1.320       .  A
N880        C884   1.350       .  A
N881        C882   1.341       .  A
C882        C883   1.382       .  A
C882        H885   1.082       .  S
C883        C884   1.388       .  A
C884        H886   1.082       .  S
