geometry optimzed in LAMMPS
_audit_creation_date              2020-12-01 
_audit_creation_method            'lammps2cif' 
_symmetry_space_group_name_H-M    'P1' 
_symmetry_Int_Tables_number       1 
_symmetry_cell_setting            triclinic 
loop_ 
_symmetry_equiv_pos_as_xyz 
  x,y,z 
_cell_length_a                    42.01105557 
_cell_length_b                    26.088188645640543 
_cell_length_c                    25.992346730133626 
_cell_angle_alpha                 87.12536589824667 
_cell_angle_beta                  92.87646876880868 
_cell_angle_gamma                 85.0375512487084 
loop_ 
_atom_site_label 
_atom_site_type_symbol 
_atom_site_fract_x 
_atom_site_fract_y 
_atom_site_fract_z 
_atom_site_charge 
C1          C  0.21620825  0.01752002  0.02687313     0.05400
C2          C  0.24637798  0.01136516  0.05485737     0.05400
C3          C  0.27287205  0.98766464  0.03115403    -0.15200
C4          C  0.27094200  0.30739601  0.47973636     0.05400
C5          C  0.24106258  0.31281847  0.45274744     0.05400
C6          C  0.21460404  0.33467647  0.47624625    -0.15200
H7          H  0.19252626  0.34261090  0.45260191     0.07400
H8          H  0.29623800  0.98372457  0.05143496     0.07400
C9          C  0.28007711  0.18497545  0.47629662     0.05400
C10         C  0.24984820  0.18740842  0.44867186     0.05400
C11         C  0.22411142  0.16574745  0.97259230    -0.15200
C12         C  0.22707204  0.14289798  0.02356372     0.05400
C13         C  0.25751689  0.13894494  0.05016328     0.05400
C14         C  0.28288123  0.16084089  0.02666523    -0.15200
H15         H  0.30489817  0.16164192  0.04997988     0.07400
H16         H  0.20076788  0.16929571  0.95230321     0.07400
N17         N  0.03593630  0.04697937  0.37855910    -0.00400
C18         C  0.03733895  0.03186088  0.32890022     0.02200
C19         C  0.01291433  0.33454843  0.31756306    -0.20700
C20         C  0.99618524  0.32938882  0.36051587    -0.20900
C21         C  0.01103064  0.02321434  0.39727913     0.02100
H22         H  0.01154550  0.30968545  0.28576323     0.15900
H23         H  0.97852619  0.30221019  0.36689035     0.15900
N24         N  0.05801553  0.07487926  0.40766558    -0.00400
C25         C  0.09005335  0.07262058  0.39982030     0.02200
C26         C  0.10655750  0.08336508  0.44447066    -0.20700
C27         C  0.08444128  0.09755094  0.47906650    -0.20900
C28         C  0.05428918  0.09383359  0.45608375     0.02100
H29         H  0.13158014  0.09049641  0.44816384     0.15900
H30         H  0.09020776  0.11559386  0.51450583     0.15900
N31         N  0.21535522  0.28713104  0.37178417    -0.00400
C32         C  0.20320498  0.32017779  0.33164310     0.02200
C33         C  0.21933421  0.03050098  0.32887077    -0.20700
C34         C  0.24091126  0.02651704  0.36980444    -0.20900
C35         C  0.23755629  0.31362326  0.39636711     0.02100
H36         H  0.21336249  0.06446746  0.30346665     0.15900
H37         H  0.25333484  0.05810431  0.38363843     0.15900
N38         N  0.21866456  0.23215112  0.37062018    -0.00400
C39         C  0.21237682  0.20969228  0.32554080     0.02200
C40         C  0.23727372  0.17404750  0.31580759    -0.20700
C41         C  0.25818117  0.17036958  0.35805057    -0.20900
C42         C  0.24544441  0.20376842  0.39266414     0.02100
H43         H  0.23707889  0.14632053  0.28621257     0.15900
H44         H  0.27720008  0.13992065  0.36637516     0.15900
N45         N  0.05441538  0.22962601  0.10236485    -0.00400
C46         C  0.08573397  0.23018011  0.11712470     0.02200
C47         C  0.10325958  0.90300428  0.07439909    -0.20700
C48         C  0.08201975  0.91220027  0.03287492    -0.20900
C49         C  0.05144763  0.24593523  0.05107875     0.02100
H50         H  0.12746852  0.91341408  0.07406423     0.15900
H51         H  0.08897941  0.92737033  0.99611398     0.15900
N52         N  0.03343097  0.19874215  0.12950015    -0.00400
C53         C  0.03655355  0.18068491  0.18020473     0.02200
C54         C  0.01288071  0.14819203  0.18961087    -0.20700
C55         C  0.99494025  0.14567458  0.14443040    -0.20900
C56         C  0.00843580  0.17587896  0.10801697     0.02100
H57         H  0.01188464  0.12240031  0.22326817     0.15900
H58         H  0.97699438  0.11912693  0.13729117     0.15900
O59         O  0.17539642  0.10972815  0.21834387    -0.54700
C60         C  0.10257900  0.09427036  0.35236680     0.77900
O61         O  0.16581877  0.21382781  0.26738350    -0.55900
C62         C  0.16316165  0.13328827  0.17706924     0.77900
C63         C  0.06697549  0.17218618  0.21184400     0.80300
Cd64       Cd  0.12794263  0.14656050  0.26715041     1.37500
O65         O  0.12430416  0.07054889  0.32751274    -0.54700
O66         O  0.08619033  0.13385774  0.20381266    -0.53500
C67         C  0.18012700  0.19681210  0.30964923     0.80200
O68         O  0.07540207  0.20110119  0.24749183    -0.55900
O69         O  0.09290901  0.13990548  0.33657218    -0.54300
O70         O  0.13457362  0.15172138  0.17771468    -0.54300
O71         O  0.16689738  0.16340004  0.33568370    -0.53500
N72         N  0.17764451  0.06475492  0.08637904    -0.00400
C73         C  0.14636210  0.05799181  0.09549697     0.02200
C74         C  0.13318095  0.36185405  0.05917631    -0.20700
C75         C  0.15740597  0.34414015  0.03068573    -0.20900
C76         C  0.18461025  0.03319335  0.04750802     0.02100
H77         H  0.11009831  0.34632686  0.05984823     0.15900
H78         H  0.15554255  0.31466886  0.00310982     0.15900
N79         N  0.19076193  0.11281448  0.09383525    -0.00400
C80         C  0.18046086  0.14496896  0.13089215     0.02200
C81         C  0.17901359  0.19564785  0.11340518    -0.20700
C82         C  0.18834258  0.19642815  0.06433559    -0.20900
C83         C  0.19766243  0.14612428  0.05363180     0.02100
H84         H  0.17204093  0.22910171  0.13454254     0.15900
H85         H  0.19311844  0.23102730  0.04228315     0.15900
O86         O  0.10709416  0.05232573  0.15832535    -0.54700
C87         C  0.06584290  0.02309447  0.29965797     0.77900
O88         O  0.12298486  0.24970346  0.18502362    -0.55900
C89         C  0.13608451  0.04496105  0.14684594     0.77900
C90         C  0.17296400  0.31899213  0.30085368     0.80300
Cd91       Cd  0.11561285  0.32643992  0.23439756     1.37500
O92         O  0.07253715  0.05405263  0.26332098    -0.54700
O93         O  0.16849101  0.01306076  0.25939539    -0.53500
C94         C  0.09526576  0.25655085  0.16315468     0.80200
O95         O  0.14968981  0.29468184  0.31470911    -0.55900
O96         O  0.08293639  0.31392995  0.30643671    -0.54300
O97         O  0.15560860  0.35405737  0.17980600    -0.54300
O98         O  0.07590743  0.95620820  0.18134288    -0.53500
C99         C  0.02522280  0.12312218  0.47800552     0.05400
C100        C  0.49885341  0.14738061  0.44794198     0.05400
C101        C  0.47618514  0.18241623  0.46960457    -0.15200
C102        C  0.47748899  0.19328035  0.02260767     0.05400
C103        C  0.00364183  0.16820265  0.05284571     0.05400
C104        C  0.02630620  0.13334313  0.03103923    -0.15200
H105        H  0.04538590  0.11426509  0.05653139     0.07400
H106        H  0.45733790  0.20153067  0.44384319     0.07400
C107        C  0.48042699  0.03153909  0.47617109     0.05400
C108        C  0.00695568  0.01033923  0.45109341     0.05400
C109        C  0.02765900  0.30277823  0.97440153    -0.15200
C110        C  0.02457184  0.28296108  0.02520829     0.05400
C111        C  0.49814745  0.30454360  0.05071797     0.05400
C112        C  0.47760616  0.34575505  0.02731063    -0.15200
H113        H  0.45918558  0.36305316  0.55022407     0.07400
H114        H  0.04604043  0.28584049  0.95123173     0.07400
N115        N  0.44986942  0.08257589  0.39733509    -0.00400
C116        C  0.41888516  0.07877321  0.38169341     0.02200
C117        C  0.40181180  0.40057465  0.42376881    -0.20700
C118        C  0.42241321  0.39438493  0.46590427    -0.20900
C119        C  0.45279037  0.06595719  0.44889044     0.02100
H120        H  0.37821170  0.38873674  0.42340327     0.15900
H121        H  0.41582070  0.37769156  0.50227889     0.15900
N122        N  0.47011656  0.11557415  0.37091478    -0.00400
C123        C  0.46753799  0.13335863  0.32008826     0.02200
C124        C  0.49147201  0.16545404  0.31098506    -0.18300
C125        C  0.50860952  0.16896617  0.35666473    -0.20900
C126        C  0.49453833  0.13938490  0.39286919     0.02100
H127        H  0.49279135  0.19105484  0.27728886     0.15900
H128        H  0.52640037  0.19571161  0.36407055     0.15900
N129        N  0.46757133  0.26991981  0.12286065    -0.00400
C130        C  0.46471290  0.28797699  0.17132668     0.02200
C131        C  0.48921972  0.98471439  0.18287275    -0.20700
C132        C  0.50749608  0.98665224  0.14129632    -0.20900
C133        C  0.49347839  0.29171216  0.10472261     0.02100
H134        H  0.48985834  0.01138808  0.21325183     0.15900
H135        H  0.52550129  0.01327135  0.13494862     0.15900
N136        N  0.44586252  0.24111995  0.09395663    -0.00400
C137        C  0.41386756  0.24336256  0.10181921     0.02200
C138        C  0.39694605  0.23703808  0.05626583    -0.20700
C139        C  0.41886635  0.22546606  0.02047209    -0.20900
C140        C  0.44922185  0.22509542  0.04437948     0.02100
H141        H  0.37168792  0.23177339  0.05178837     0.15900
H142        H  0.41266954  0.21135115  0.98332696     0.15900
N143        N  0.27997116  0.03809156  0.12765404    -0.00400
C144        C  0.29331235  0.00127138  0.16332219     0.02200
C145        C  0.27173017  0.29925474  0.17446484    -0.20700
C146        C  0.24509277  0.31231071  0.14236427    -0.20900
C147        C  0.25178775  0.02014250  0.11029001     0.02100
H148        H  0.27554162  0.26618584  0.20146904     0.15900
H149        H  0.22546479  0.28859895  0.13662757     0.15900
N150        N  0.28322770  0.09184592  0.13171729    -0.00400
C151        C  0.28973413  0.11104647  0.17886223     0.02200
C152        C  0.26817317  0.15257953  0.18626779    -0.20700
C153        C  0.25265435  0.16576701  0.13981697    -0.20900
C154        C  0.26152800  0.12807074  0.10702473     0.02100
H155        H  0.26990368  0.17877468  0.21707822     0.15900
H156        H  0.24022215  0.20285136  0.12920660     0.15900
N157        N  0.31061416  0.28616737  0.41154375    -0.00400
C158        C  0.32617928  0.32102678  0.38339581     0.02200
C159        C  0.32232179  0.03605708  0.40196867    -0.20700
C160        C  0.30713064  0.03147303  0.44608945    -0.20900
C161        C  0.29931205  0.31452276  0.45087684     0.02100
H162        H  0.32947892  0.07155718  0.38447234     0.15900
H163        H  0.29855077  0.06335434  0.46834450     0.15900
N164        N  0.31321744  0.23105523  0.40922042    -0.00400
C165        C  0.34052839  0.20803176  0.39068581     0.02200
C166        C  0.35841005  0.17913353  0.42902096    -0.20700
C167        C  0.33920556  0.17301769  0.46839534    -0.20900
C168        C  0.31042495  0.20121272  0.45386529     0.02100
H169        H  0.38169627  0.15947864  0.42599389     0.15900
H170        H  0.34464767  0.14481177  0.50021727     0.15900
O171        O  0.41888417  0.18363824  0.29823688    -0.54700
C172        C  0.32221494  0.12266777  0.19536737     0.77900
O173        O  0.37281357  0.16988154  0.32898862    -0.55900
C174        C  0.43717714  0.14440423  0.28906867     0.77900
C175        C  0.40105091  0.22168038  0.14924136     0.80300
Cd176      Cd  0.37524403  0.17194970  0.23760621     1.37500
O177        O  0.33638986  0.10474437  0.23742743    -0.54700
O178        O  0.41191862  0.17757611  0.16796396    -0.53500
C179        C  0.34822105  0.19897242  0.33607109     0.80200
O180        O  0.37827612  0.24469921  0.17215241    -0.55900
O181        O  0.33543594  0.15689516  0.17052437    -0.54300
O182        O  0.42801234  0.11691626  0.25272179    -0.54300
O183        O  0.33358715  0.21981533  0.29521983    -0.53500
O184        O  0.33484753  0.34478082  0.29845481    -0.54700
C185        C  0.43516594  0.29906578  0.19807328     0.77900
O186        O  0.34685927  0.02842576  0.17782119    -0.55900
C187        C  0.34400221  0.31535288  0.33743775     0.77900
C188        C  0.40924203  0.05592791  0.33343975     0.80300
Cd189      Cd  0.38230742  0.33108828  0.25570995     1.37500
O190        O  0.41885531  0.34224668  0.18889910    -0.54700
O191        O  0.38537483  0.40825205  0.30445221    -0.53500
C192        C  0.32602030  0.99743022  0.18827819     0.80200
O193        O  0.42298268  0.01355253  0.32146528    -0.55900
O194        O  0.42653662  0.93566759  0.23408475    -0.54300
O195        O  0.37106245  0.95563801  0.33695844    -0.54300
O196        O  0.33420498  0.29563230  0.22309995    -0.53500
C197        C  0.21620823  0.01752402  0.52687458     0.05400
C198        C  0.24637734  0.01136391  0.55486152     0.05400
C199        C  0.27286974  0.98765683  0.53115953    -0.15200
C200        C  0.27093993  0.30740244  0.97974010     0.05400
C201        C  0.24106022  0.31282396  0.95275061     0.05400
C202        C  0.21460124  0.33467569  0.97625238    -0.15200
H203        H  0.19252336  0.34260781  0.95260989     0.07400
H204        H  0.29623684  0.98371091  0.55144378     0.07400
C205        C  0.28007194  0.18498007  0.97629395     0.05400
C206        C  0.24984149  0.18741764  0.94867308     0.05400
C207        C  0.22411761  0.16573805  0.47258789    -0.15200
C208        C  0.22707475  0.14289584  0.52356114     0.05400
C209        C  0.25751812  0.13894783  0.55016629     0.05400
C210        C  0.28288403  0.16084085  0.52666949    -0.15200
H211        H  0.30490273  0.16164224  0.54998719     0.07400
H212        H  0.20077330  0.16928350  0.45229313     0.07400
N213        N  0.03593902  0.04696923  0.87855437    -0.00400
C214        C  0.03734401  0.03184100  0.82889844     0.02200
C215        C  0.01291106  0.33455709  0.81755181    -0.20700
C216        C  0.99618472  0.32938962  0.86050694    -0.20900
C217        C  0.01103378  0.02320413  0.89727599     0.02100
H218        H  0.01154160  0.30969747  0.78574967     0.15900
H219        H  0.97852581  0.30220827  0.86687993     0.15900
N220        N  0.05801830  0.07487037  0.90765915    -0.00400
C221        C  0.09005553  0.07261192  0.89981110     0.02200
C222        C  0.10656231  0.08334776  0.94446273    -0.20700
C223        C  0.08444737  0.09752826  0.97906275    -0.20900
C224        C  0.05429448  0.09381809  0.95608184     0.02100
H225        H  0.13158197  0.09047584  0.94815377     0.15900
H226        H  0.09021681  0.11556852  0.01450909     0.15900
N227        N  0.21535061  0.28714168  0.87178457    -0.00400
C228        C  0.20319987  0.32019076  0.83164557     0.02200
C229        C  0.21933180  0.03050531  0.82887168    -0.20700
C230        C  0.24090605  0.02652554  0.86980914    -0.20900
C231        C  0.23755278  0.31363231  0.89636907     0.02100
H232        H  0.21335665  0.06447175  0.80347143     0.15900
H233        H  0.25332420  0.05811617  0.88364854     0.15900
N234        N  0.21865739  0.23216179  0.87061920    -0.00400
C235        C  0.21236940  0.20970430  0.82553778     0.02200
C236        C  0.23726495  0.17405674  0.81580714    -0.20700
C237        C  0.25817138  0.17037464  0.85805142    -0.20900
C238        C  0.24543577  0.20377582  0.89266418     0.02100
H239        H  0.23706947  0.14632672  0.78621032     0.15900
H240        H  0.27718725  0.13992704  0.86637599     0.15900
N241        N  0.05441219  0.22962074  0.60236152    -0.00400
C242        C  0.08573105  0.23017436  0.61712063     0.02200
C243        C  0.10326179  0.90301177  0.57439181    -0.20700
C244        C  0.08202044  0.91221397  0.53287086    -0.20900
C245        C  0.05144385  0.24592933  0.55107622     0.02100
H246        H  0.12747091  0.91342470  0.57405717     0.15900
H247        H  0.08897862  0.92739347  0.49611117     0.15900
N248        N  0.03342632  0.19874058  0.62949883    -0.00400
C249        C  0.03654917  0.18068357  0.68020287     0.02200
C250        C  0.01287503  0.14819383  0.68961069    -0.20700
C251        C  0.99493301  0.14567900  0.64443177    -0.20900
C252        C  0.00842884  0.17588187  0.60801722     0.02100
H253        H  0.01187834  0.12240099  0.72327145     0.15900
H254        H  0.97698472  0.11913333  0.63729292     0.15900
O255        O  0.17539636  0.10974394  0.71833471    -0.54700
C256        C  0.10257990  0.09426619  0.85235784     0.77900
O257        O  0.16580821  0.21384561  0.76738400    -0.55900
C258        C  0.16315864  0.13329598  0.67705800     0.77900
C259        C  0.06697138  0.17218518  0.71184049     0.80300
Cd260      Cd  0.12793961  0.14656475  0.76714074     1.37500
O261        O  0.12430745  0.07055035  0.82750398    -0.54700
O262        O  0.08618569  0.13385571  0.70380968    -0.53500
C263        C  0.18011982  0.19682259  0.80964509     0.80200
O264        O  0.07539907  0.20110286  0.74748515    -0.55900
O265        O  0.09290514  0.13989899  0.83656205    -0.54300
O266        O  0.13456850  0.15171863  0.67770193    -0.54300
O267        O  0.16689570  0.16339756  0.83567065    -0.53500
N268        N  0.17764199  0.06475921  0.58637408    -0.00400
C269        C  0.14635914  0.05799864  0.59548973     0.02200
C270        C  0.13318364  0.36185654  0.55916776    -0.20700
C271        C  0.15740889  0.34414397  0.53067819    -0.20900
C272        C  0.18460942  0.03319490  0.54750728     0.02100
H273        H  0.11009961  0.34632682  0.55983907     0.15900
H274        H  0.15554620  0.31467120  0.50310085     0.15900
N275        N  0.19076013  0.11281856  0.59382764    -0.00400
C276        C  0.18045628  0.14497599  0.63087901     0.02200
C277        C  0.17900717  0.19565359  0.61338623    -0.20700
C278        C  0.18833904  0.19642854  0.56431753    -0.20900
C279        C  0.19766223  0.14612358  0.55362200     0.02100
H280        H  0.17203386  0.22910644  0.63451702     0.15900
H281        H  0.19311489  0.23102459  0.54226332     0.15900
O282        O  0.10709141  0.05232196  0.65831808    -0.54700
C283        C  0.06584795  0.02308012  0.79965518     0.77900
O284        O  0.12298149  0.24969837  0.68502089    -0.55900
C285        C  0.13608212  0.04496557  0.64683870     0.77900
C286        C  0.17296050  0.31900147  0.80085217     0.80300
Cd287      Cd  0.11561116  0.32644187  0.73438853     1.37500
O288        O  0.07254087  0.05404219  0.76332069    -0.54700
O289        O  0.16849773  0.01305352  0.75938387    -0.53500
C290        C  0.09526340  0.25654862  0.66314816     0.80200
O291        O  0.14968440  0.29469709  0.81470970    -0.55900
O292        O  0.08293322  0.31393587  0.80642844    -0.54300
O293        O  0.15560799  0.35405866  0.67979758    -0.54300
O294        O  0.07591433  0.95621248  0.68132795    -0.53500
C295        C  0.02523079  0.12311261  0.97800558     0.05400
C296        C  0.49886383  0.14737010  0.94794078     0.05400
C297        C  0.47619878  0.18241084  0.96960233    -0.15200
C298        C  0.47747479  0.19328303  0.52261144     0.05400
C299        C  0.00363266  0.16820747  0.55284627     0.05400
C300        C  0.02629801  0.13335045  0.53103934    -0.15200
H301        H  0.04537543  0.11427591  0.55652764     0.07400
H302        H  0.45735035  0.20152882  0.94383792     0.07400
C303        C  0.48042745  0.03153617  0.97616984     0.05400
C304        C  0.00695930  0.01033472  0.95109126     0.05400
C305        C  0.02765684  0.30277913  0.47440423    -0.15200
C306        C  0.02456876  0.28295778  0.52520812     0.05400
C307        C  0.49814275  0.30453512  0.55072164     0.05400
C308        C  0.47760443  0.34574868  0.52731432    -0.15200
H309        H  0.45918574  0.36305601  0.05022098     0.07400
H310        H  0.04603815  0.28584298  0.45123306     0.07400
N311        N  0.44987403  0.08257551  0.89733515    -0.00400
C312        C  0.41888887  0.07877950  0.88169555     0.02200
C313        C  0.40181219  0.40056291  0.92376019    -0.20700
C314        C  0.42241210  0.39437996  0.96589578    -0.20900
C315        C  0.45279381  0.06596234  0.94889168     0.02100
H316        H  0.37820920  0.38870958  0.92339289     0.15900
H317        H  0.41582111  0.37768103  0.00227306     0.15900
N318        N  0.47012185  0.11557136  0.87091513    -0.00400
C319        C  0.46753957  0.13336441  0.82009117     0.02200
C320        C  0.49147416  0.16545861  0.81098742    -0.18300
C321        C  0.50861665  0.16896002  0.85666503    -0.20900
C322        C  0.49454732  0.13937512  0.89286826     0.02100
H323        H  0.49279226  0.19105972  0.77729772     0.15900
H324        H  0.52640853  0.19570256  0.86407071     0.15900
N325        N  0.46756443  0.26992140  0.62286398    -0.00400
C326        C  0.46470681  0.28798508  0.67132802     0.02200
C327        C  0.48922460  0.98469777  0.68287756    -0.20700
C328        C  0.50749942  0.98664245  0.64129989    -0.20900
C329        C  0.49347314  0.29170911  0.60472608     0.02100
H330        H  0.48986407  0.01137072  0.71326318     0.15900
H331        H  0.52550443  0.01326286  0.63495398     0.15900
N332        N  0.44585282  0.24112729  0.59396104    -0.00400
C333        C  0.41385791  0.24337392  0.60182558     0.02200
C334        C  0.39693442  0.23705405  0.55627256    -0.20700
C335        C  0.41885345  0.22547787  0.52047696    -0.20900
C336        C  0.44920947  0.22510173  0.54438321     0.02100
H337        H  0.37167758  0.23179289  0.55179662     0.15900
H338        H  0.41265510  0.21136545  0.48333380     0.15900
N339        N  0.27997189  0.03809621  0.62765562    -0.00400
C340        C  0.29331636  0.00127615  0.66332143     0.02200
C341        C  0.27172759  0.29924853  0.67445560    -0.20700
C342        C  0.24509078  0.31230763  0.64235424    -0.20900
C343        C  0.25178831  0.02014453  0.61029411     0.02100
H344        H  0.27553780  0.26618206  0.70145666     0.15900
H345        H  0.22546194  0.28859732  0.63661576     0.15900
N346        N  0.28322592  0.09185125  0.63172228    -0.00400
C347        C  0.28972900  0.11105111  0.67886898     0.02200
C348        C  0.26816455  0.15258010  0.68627285    -0.20700
C349        C  0.25264738  0.16576740  0.63982056    -0.20900
C350        C  0.26152601  0.12807379  0.60702786     0.02100
H351        H  0.26989216  0.17877720  0.71708629     0.15900
H352        H  0.24021350  0.20284817  0.62921026     0.15900
N353        N  0.31061192  0.28617524  0.91154736    -0.00400
C354        C  0.32617817  0.32103479  0.88340145     0.02200
C355        C  0.32232489  0.03606012  0.90195875    -0.20700
C356        C  0.30712840  0.03148216  0.94607501    -0.20900
C357        C  0.29930978  0.31452952  0.95088107     0.02100
H358        H  0.32948158  0.07155725  0.88445844     0.15900
H359        H  0.29854469  0.06336793  0.96832397     0.15900
N360        N  0.31321351  0.23106352  0.90922066    -0.00400
C361        C  0.34052587  0.20804160  0.89068940     0.02200
C362        C  0.35840799  0.17914745  0.92902624    -0.20700
C363        C  0.33920158  0.17302760  0.96839685    -0.20900
C364        C  0.31042002  0.20121902  0.95386390     0.02100
H365        H  0.38169514  0.15949546  0.92600121     0.15900
H366        H  0.34464435  0.14482130  0.00021848     0.15900
O367        O  0.41888479  0.18364622  0.79824352    -0.54700
C368        C  0.32220854  0.12267938  0.69537613     0.77900
O369        O  0.37280689  0.16987575  0.82899598    -0.55900
C370        C  0.43717721  0.14441155  0.78907465     0.77900
C371        C  0.40104305  0.22168552  0.64924645     0.80300
Cd372      Cd  0.37524149  0.17195346  0.73761478     1.37500
O373        O  0.33639060  0.10474083  0.73742584    -0.54700
O374        O  0.41190434  0.17757257  0.66795469    -0.53500
C375        C  0.34821806  0.19897585  0.83607658     0.80200
O376        O  0.37827621  0.24470900  0.67217100    -0.55900
O377        O  0.33542141  0.15692518  0.67054562    -0.54300
O378        O  0.42801062  0.11692304  0.75272947    -0.54300
O379        O  0.33358784  0.21982383  0.79522496    -0.53500
O380        O  0.33484510  0.34479116  0.79845939    -0.54700
C381        C  0.43516095  0.29907153  0.69807491     0.77900
O382        O  0.34686308  0.02843658  0.67782154    -0.55900
C383        C  0.34399982  0.31536163  0.83744152     0.77900
C384        C  0.40924433  0.05593215  0.83344353     0.80300
Cd385      Cd  0.38230208  0.33108628  0.75570744     1.37500
O386        O  0.41884716  0.34224911  0.68889644    -0.54700
O387        O  0.38537690  0.40825370  0.80443860    -0.53500
C388        C  0.32602491  0.99743837  0.68827638     0.80200
O389        O  0.42299102  0.01356457  0.82146071    -0.55900
O390        O  0.42653772  0.93565863  0.73408559    -0.54300
O391        O  0.37107272  0.95563906  0.83696443    -0.54300
O392        O  0.33419892  0.29562959  0.72310097    -0.53500
C393        C  0.21619685  0.35086546  0.02689011     0.05400
C394        C  0.24636936  0.34472205  0.05486096     0.05400
C395        C  0.27287269  0.32109512  0.03112689    -0.15200
C396        C  0.27093312  0.64067023  0.47972167     0.05400
C397        C  0.24104805  0.64608959  0.45274897     0.05400
C398        C  0.21459420  0.66793990  0.47626299    -0.15200
H399        H  0.19251263  0.67587498  0.45262301     0.07400
H400        H  0.29624430  0.31717396  0.05139651     0.07400
C401        C  0.28008791  0.51822326  0.47624919     0.05400
C402        C  0.24985456  0.52071275  0.44862708     0.05400
C403        C  0.22410971  0.49907360  0.97253939    -0.15200
C404        C  0.22705512  0.47621261  0.02350634     0.05400
C405        C  0.25750281  0.47220104  0.05010689     0.05400
C406        C  0.28288740  0.49403890  0.02660389    -0.15200
H407        H  0.30490810  0.49479333  0.04992362     0.07400
H408        H  0.20076334  0.50266127  0.95224482     0.07400
N409        N  0.03590557  0.38027186  0.37853021    -0.00400
C410        C  0.03731570  0.36509234  0.32889307     0.02200
C411        C  0.01292377  0.66787824  0.31758196    -0.20700
C412        C  0.99618367  0.66272682  0.36052143    -0.20900
C413        C  0.01100452  0.35650974  0.39727537     0.02100
H414        H  0.01155496  0.64302279  0.28577533     0.15900
H415        H  0.97851732  0.63555978  0.36688153     0.15900
N416        N  0.05799170  0.40818486  0.40761035    -0.00400
C417        C  0.09002883  0.40590228  0.39974509     0.02200
C418        C  0.10655158  0.41655899  0.44440886    -0.20700
C419        C  0.08445084  0.43072735  0.47903629    -0.20900
C420        C  0.05428972  0.42708609  0.45605867     0.02100
H421        H  0.13158022  0.42364823  0.44810166     0.15900
H422        H  0.09023644  0.44872090  0.51449877     0.15900
N423        N  0.21534116  0.62044144  0.37176922    -0.00400
C424        C  0.20317832  0.65350598  0.33164797     0.02200
C425        C  0.21931065  0.36392252  0.32887807    -0.20700
C426        C  0.24088646  0.35994993  0.36981242    -0.20900
C427        C  0.23753221  0.64693906  0.39636825     0.02100
H428        H  0.21332618  0.39789197  0.30348446     0.15900
H429        H  0.25329495  0.39154085  0.38365473     0.15900
N430        N  0.21867619  0.56546553  0.37057184    -0.00400
C431        C  0.21240271  0.54302450  0.32547982     0.02200
C432        C  0.23730474  0.50738678  0.31575208    -0.20700
C433        C  0.25820594  0.50370718  0.35800355    -0.20900
C434        C  0.24545739  0.53709058  0.39262153     0.02100
H435        H  0.23711722  0.47966273  0.28615490     0.15900
H436        H  0.27722730  0.47326440  0.36632788     0.15900
N437        N  0.05440203  0.56297312  0.10235995    -0.00400
C438        C  0.08571888  0.56356560  0.11710790     0.02200
C439        C  0.10327076  0.23638741  0.07440362    -0.20700
C440        C  0.08202527  0.24565074  0.03289459    -0.20900
C441        C  0.05142355  0.57926144  0.05107038     0.02100
H442        H  0.12748134  0.24678889  0.07408002     0.15900
H443        H  0.08897862  0.26088180  0.99615036     0.15900
N444        N  0.03343403  0.53207622  0.12951470    -0.00400
C445        C  0.03656162  0.51406017  0.18023121     0.02200
C446        C  0.01290629  0.48154105  0.18966208    -0.20700
C447        C  0.99497919  0.47895169  0.14447928    -0.20900
C448        C  0.00845903  0.50915582  0.10804654     0.02100
H449        H  0.01191838  0.45577598  0.22334349     0.15900
H450        H  0.97705088  0.45237502  0.13736105     0.15900
O451        O  0.17540423  0.44317191  0.21829487    -0.54700
C452        C  0.10255975  0.42759369  0.35230596     0.77900
O453        O  0.16585277  0.54716954  0.26730780    -0.55900
C454        C  0.16314273  0.46668019  0.17701137     0.77900
C455        C  0.06698959  0.50557574  0.21184815     0.80300
Cd456      Cd  0.12794905  0.47993686  0.26711719     1.37500
O457        O  0.12428224  0.40388874  0.32743340    -0.54700
O458        O  0.08620413  0.46725047  0.20379909    -0.53500
C459        C  0.18015671  0.53014820  0.30957486     0.80200
O460        O  0.07541964  0.53449395  0.24749287    -0.55900
O461        O  0.09290657  0.47324762  0.33655252    -0.54300
O462        O  0.13454250  0.48505512  0.17765954    -0.54300
O463        O  0.16691637  0.49675540  0.33561847    -0.53500
N464        N  0.17762725  0.39809225  0.08638390    -0.00400
C465        C  0.14634968  0.39130872  0.09552307     0.02200
C466        C  0.13318750  0.69522246  0.05916807    -0.20700
C467        C  0.15740893  0.67750358  0.03067527    -0.20900
C468        C  0.18460230  0.36648935  0.04755105     0.02100
H469        H  0.11010099  0.67970546  0.05983721     0.15900
H470        H  0.15553761  0.64803568  0.00309818     0.15900
N471        N  0.19073386  0.44617067  0.09378976    -0.00400
C472        C  0.18042305  0.47835088  0.13081500     0.02200
C473        C  0.17896671  0.52901931  0.11329238    -0.20700
C474        C  0.18830431  0.52976514  0.06422597    -0.20900
C475        C  0.19763703  0.47945251  0.05356293     0.02100
H476        H  0.17198790  0.56248397  0.13440648     0.15900
H477        H  0.19307858  0.56435355  0.04215107     0.15900
O478        O  0.10708047  0.38561799  0.15834991    -0.54700
C479        C  0.06582116  0.35635346  0.29964903     0.77900
O480        O  0.12294714  0.58304569  0.18504925    -0.55900
C481        C  0.13607684  0.37830505  0.14688542     0.77900
C482        C  0.17293790  0.65232411  0.30085465     0.80300
Cd483      Cd  0.11559845  0.65980022  0.23438738     1.37500
O484        O  0.07251028  0.38732755  0.26331964    -0.54700
O485        O  0.16846354  0.34648671  0.25943150    -0.53500
C486        C  0.09524324  0.58994762  0.16312947     0.80200
O487        O  0.14967398  0.62797121  0.31467594    -0.55900
O488        O  0.08293485  0.64724395  0.30642761    -0.54300
O489        O  0.15560979  0.68730698  0.17976763    -0.54300
O490        O  0.07592282  0.28946567  0.18140412    -0.53500
C491        C  0.02524528  0.45641153  0.47801219     0.05400
C492        C  0.49884861  0.48066251  0.44791387     0.05400
C493        C  0.47616966  0.51569293  0.46956356    -0.15200
C494        C  0.47746295  0.52662850  0.02255213     0.05400
C495        C  0.00366098  0.50147193  0.05287647     0.05400
C496        C  0.02632467  0.46662051  0.03104954    -0.15200
H497        H  0.04540232  0.44753052  0.05653038     0.07400
H498        H  0.45731067  0.53476393  0.44379753     0.07400
C499        C  0.48044472  0.36483814  0.47616019     0.05400
C500        C  0.00693803  0.34366750  0.45109918     0.05400
C501        C  0.02762263  0.63607962  0.97440184    -0.15200
C502        C  0.02453936  0.61626969  0.02520749     0.05400
C503        C  0.49815899  0.63786995  0.05067476     0.05400
C504        C  0.47761335  0.67907841  0.02726924    -0.15200
H505        H  0.45918763  0.69636832  0.55017828     0.07400
H506        H  0.04599337  0.61912642  0.95122405     0.07400
N507        N  0.44985098  0.41584943  0.39733823    -0.00400
C508        C  0.41885280  0.41211744  0.38173840     0.02200
C509        C  0.40182606  0.73387311  0.42369968    -0.20700
C510        C  0.42241996  0.72770186  0.46584498    -0.20900
C511        C  0.45279134  0.39922539  0.44888725     0.02100
H512        H  0.37823168  0.72199812  0.42331142     0.15900
H513        H  0.41582704  0.71098472  0.50221708     0.15900
N514        N  0.47010308  0.44882166  0.37090121    -0.00400
C515        C  0.46752835  0.46656907  0.32006362     0.02200
C516        C  0.49147363  0.49863839  0.31094422    -0.18300
C517        C  0.50861327  0.50216743  0.35661880    -0.20900
C518        C  0.49453068  0.47262998  0.39284382     0.02100
H519        H  0.49279479  0.52422987  0.27724084     0.15900
H520        H  0.52641233  0.52890907  0.36400613     0.15900
N521        N  0.46757042  0.60326366  0.12281267    -0.00400
C522        C  0.46471426  0.62132522  0.17127441     0.02200
C523        C  0.48923913  0.31815296  0.18285309    -0.20700
C524        C  0.50752566  0.32006229  0.14128636    -0.20900
C525        C  0.49348650  0.62503495  0.10467778     0.02100
H526        H  0.48986442  0.34485251  0.21320689     0.15900
H527        H  0.52552395  0.34668858  0.13492484     0.15900
N528        N  0.44585931  0.57445760  0.09392202    -0.00400
C529        C  0.41386586  0.57670040  0.10180169     0.02200
C530        C  0.39693426  0.57043350  0.05624385    -0.20700
C531        C  0.41884696  0.55889216  0.02042697    -0.20900
C532        C  0.44920672  0.55846897  0.04433044     0.02100
H533        H  0.37167405  0.56519473  0.05176636     0.15900
H534        H  0.41263952  0.54483453  0.98326422     0.15900
N535        N  0.27995403  0.37139341  0.12767481    -0.00400
C536        C  0.29330554  0.33457563  0.16333712     0.02200
C537        C  0.27175056  0.63256704  0.17442124    -0.20700
C538        C  0.24510600  0.64563418  0.14234118    -0.20900
C539        C  0.25177969  0.35343142  0.11030245     0.02100
H540        H  0.27556595  0.59949602  0.20142368     0.15900
H541        H  0.22547870  0.62192504  0.13661263     0.15900
N542        N  0.28320414  0.42515181  0.13170362    -0.00400
C543        C  0.28969254  0.44438150  0.17883997     0.02200
C544        C  0.26812381  0.48591526  0.18620295    -0.20700
C545        C  0.25261365  0.49906887  0.13973956    -0.20900
C546        C  0.26150332  0.46135489  0.10697589     0.02100
H547        H  0.26984400  0.51213916  0.21699986     0.15900
H548        H  0.24018249  0.53614644  0.12909897     0.15900
N549        N  0.31060013  0.61946493  0.41150559    -0.00400
C550        C  0.32616907  0.65432742  0.38336152     0.02200
C551        C  0.32231228  0.36941854  0.40186015    -0.20700
C552        C  0.30713036  0.36487200  0.44599457    -0.20900
C553        C  0.29929379  0.64781671  0.45083896     0.02100
H554        H  0.32947711  0.40489743  0.38433460     0.15900
H555        H  0.29855966  0.39677344  0.46823304     0.15900
N556        N  0.31322133  0.56435275  0.40919553    -0.00400
C557        C  0.34054781  0.54136860  0.39068410     0.02200
C558        C  0.35844696  0.51253318  0.42904265    -0.20700
C559        C  0.33923751  0.50639369  0.46841089    -0.20900
C560        C  0.31043550  0.53451335  0.45384531     0.02100
H561        H  0.38174803  0.49292497  0.42603212     0.15900
H562        H  0.34469911  0.47820939  0.50025015     0.15900
O563        O  0.41890163  0.51691302  0.29817488    -0.54700
C564        C  0.32217004  0.45600348  0.19536928     0.77900
O565        O  0.37282936  0.50319691  0.32899527    -0.55900
C566        C  0.43716567  0.47763236  0.28904418     0.77900
C567        C  0.40104957  0.55500460  0.14922603     0.80300
Cd568      Cd  0.37523263  0.50524326  0.23759850     1.37500
O569        O  0.33633818  0.43807805  0.23743441    -0.54700
O570        O  0.41193852  0.51092215  0.16797715    -0.53500
C571        C  0.34824006  0.53229283  0.33607556     0.80200
O572        O  0.37825426  0.57799223  0.17211438    -0.55900
O573        O  0.33540267  0.49021877  0.17052842    -0.54300
O574        O  0.42797107  0.45011827  0.25273656    -0.54300
O575        O  0.33360511  0.55313154  0.29522360    -0.53500
O576        O  0.33483894  0.67806095  0.29840705    -0.54700
C577        C  0.43516663  0.63241424  0.19801528     0.77900
O578        O  0.34684297  0.36176868  0.17784444    -0.55900
C579        C  0.34400194  0.64865962  0.33740456     0.77900
C580        C  0.40918284  0.38924946  0.33350927     0.80300
Cd581      Cd  0.38231783  0.66442406  0.25566120     1.37500
O582        O  0.41884995  0.67558805  0.18882692    -0.54700
O583        O  0.38540198  0.74157438  0.30438877    -0.53500
C584        C  0.32601724  0.33074221  0.18827958     0.80200
O585        O  0.42293816  0.34689118  0.32151919    -0.55900
O586        O  0.42656882  0.26903101  0.23408189    -0.54300
O587        O  0.37106167  0.28898954  0.33695671    -0.54300
O588        O  0.33421721  0.62897307  0.22306667    -0.53500
C589        C  0.21619928  0.35086873  0.52688271     0.05400
C590        C  0.24637083  0.34472130  0.55485384     0.05400
C591        C  0.27287495  0.32109143  0.53112239    -0.15200
C592        C  0.27093159  0.64067098  0.97971411     0.05400
C593        C  0.24104782  0.64610710  0.95273895     0.05400
C594        C  0.21459717  0.66797900  0.97624683    -0.15200
H595        H  0.19252061  0.67592670  0.95260764     0.07400
H596        H  0.29624237  0.31716923  0.55138951     0.07400
C597        C  0.28008744  0.51822098  0.97624858     0.05400
C598        C  0.24985362  0.52071051  0.94862858     0.05400
C599        C  0.22410985  0.49907816  0.47253720    -0.15200
C600        C  0.22705515  0.47621533  0.52350309     0.05400
C601        C  0.25750280  0.47219978  0.55010338     0.05400
C602        C  0.28288682  0.49403946  0.52660296    -0.15200
H603        H  0.30490900  0.49479437  0.54992693     0.07400
H604        H  0.20076417  0.50266710  0.45224320     0.07400
N605        N  0.03590353  0.38027456  0.87852262    -0.00400
C606        C  0.03731261  0.36510052  0.82888282     0.02200
C607        C  0.01291436  0.66789778  0.81758380    -0.20700
C608        C  0.99617858  0.66273866  0.86052708    -0.20900
C609        C  0.01100480  0.35650665  0.89726832     0.02100
H610        H  0.01154237  0.64304903  0.78577496     0.15900
H611        H  0.97851222  0.63557160  0.86688659     0.15900
N612        N  0.05798809  0.40818902  0.90760240    -0.00400
C613        C  0.09002555  0.40590327  0.89974045     0.02200
C614        C  0.10654813  0.41654897  0.94440768    -0.20700
C615        C  0.08444723  0.43071502  0.97903543    -0.20900
C616        C  0.05428597  0.42708428  0.95605336     0.02100
H617        H  0.13157858  0.42363360  0.94810456     0.15900
H618        H  0.09023349  0.44870221  0.01450070     0.15900
N619        N  0.21533713  0.62044116  0.87177162    -0.00400
C620        C  0.20317466  0.65350113  0.83164661     0.02200
C621        C  0.21930609  0.36393492  0.82888244    -0.20700
C622        C  0.24088270  0.35995939  0.86981527    -0.20900
C623        C  0.23753272  0.64693882  0.89635946     0.02100
H624        H  0.21332119  0.39790783  0.80348677     0.15900
H625        H  0.25329460  0.39155399  0.88366077     0.15900
N626        N  0.21867385  0.56546531  0.87057499    -0.00400
C627        C  0.21240307  0.54302604  0.82548127     0.02200
C628        C  0.23730803  0.50739546  0.81575052    -0.20700
C629        C  0.25820858  0.50371568  0.85800272    -0.20900
C630        C  0.24545602  0.53709235  0.89262389     0.02100
H631        H  0.23712238  0.47967174  0.78615102     0.15900
H632        H  0.27723095  0.47327600  0.86632506     0.15900
N633        N  0.05439947  0.56298034  0.60236342    -0.00400
C634        C  0.08571549  0.56357501  0.61711123     0.02200
C635        C  0.10326708  0.23638066  0.57439842    -0.20700
C636        C  0.08202123  0.24564233  0.53288953    -0.20900
C637        C  0.05142192  0.57925949  0.55107192     0.02100
H638        H  0.12747612  0.24678662  0.57407228     0.15900
H639        H  0.08897396  0.26087022  0.49614870     0.15900
N640        N  0.03343354  0.53207961  0.62951893    -0.00400
C641        C  0.03656431  0.51405721  0.68023343     0.02200
C642        C  0.01291045  0.48153584  0.68966330    -0.20700
C643        C  0.99498132  0.47895070  0.64448280    -0.20900
C644        C  0.00845898  0.50915888  0.60805083     0.02100
H645        H  0.01192529  0.45576244  0.72334608     0.15900
H646        H  0.97705359  0.45237191  0.63736264     0.15900
O647        O  0.17540037  0.44316017  0.71828495    -0.54700
C648        C  0.10255842  0.42759673  0.85230398     0.77900
O649        O  0.16585117  0.54717195  0.76731421    -0.55900
C650        C  0.16314217  0.46668528  0.67700763     0.77900
C651        C  0.06699337  0.50557211  0.71184740     0.80300
Cd652      Cd  0.12795172  0.47993486  0.76711715     1.37500
O653        O  0.12428058  0.40389039  0.82743206    -0.54700
O654        O  0.08620895  0.46724945  0.70379372    -0.53500
C655        C  0.18015869  0.53014426  0.80957637     0.80200
O656        O  0.07542253  0.53448657  0.74749586    -0.55900
O657        O  0.09290708  0.47325199  0.83655170    -0.54300
O658        O  0.13454610  0.48507804  0.67766306    -0.54300
O659        O  0.16692339  0.49674166  0.83561493    -0.53500
N660        N  0.17762890  0.39809597  0.58637767    -0.00400
C661        C  0.14635123  0.39131152  0.59551512     0.02200
C662        C  0.13318402  0.69520360  0.55918045    -0.20700
C663        C  0.15740461  0.67747849  0.53068996    -0.20900
C664        C  0.18460470  0.36649426  0.54754354     0.02100
H665        H  0.11009410  0.67968871  0.55985070     0.15900
H666        H  0.15553217  0.64800837  0.50311876     0.15900
N667        N  0.19073419  0.44617537  0.59378577    -0.00400
C668        C  0.18042251  0.47835515  0.63081095     0.02200
C669        C  0.17896841  0.52902428  0.61329059    -0.20700
C670        C  0.18830718  0.52977089  0.56422510    -0.20900
C671        C  0.19763807  0.47945792  0.55356053     0.02100
H672        H  0.17199060  0.56248880  0.63440558     0.15900
H673        H  0.19308272  0.56435887  0.54215173     0.15900
O674        O  0.10708047  0.38561961  0.65833881    -0.54700
C675        C  0.06581860  0.35635989  0.79963950     0.77900
O676        O  0.12294836  0.58307061  0.68503810    -0.55900
C677        C  0.13607724  0.37830797  0.64687658     0.77900
C678        C  0.17293038  0.65232433  0.80086134     0.80300
Cd679      Cd  0.11559006  0.65980769  0.73439567     1.37500
O680        O  0.07250864  0.38733213  0.76330909    -0.54700
O681        O  0.16846357  0.34648598  0.75942330    -0.53500
C682        C  0.09523984  0.58995478  0.66313447     0.80200
O683        O  0.14966787  0.62796773  0.81468276    -0.55900
O684        O  0.08292475  0.64725817  0.80643086    -0.54300
O685        O  0.15560359  0.68731308  0.67978297    -0.54300
O686        O  0.07592184  0.28946939  0.68139175    -0.53500
C687        C  0.02524259  0.45641354  0.97800560     0.05400
C688        C  0.49884017  0.48067953  0.94790359     0.05400
C689        C  0.47616049  0.51570671  0.96955672    -0.15200
C690        C  0.47747145  0.52661773  0.52255771     0.05400
C691        C  0.00366267  0.50147280  0.55288138     0.05400
C692        C  0.02632664  0.46661880  0.53105630    -0.15200
H693        H  0.04540350  0.44752992  0.55653652     0.07400
H694        H  0.45729838  0.53477816  0.94379101     0.07400
C695        C  0.48044469  0.36484664  0.97615557     0.05400
C696        C  0.00693929  0.34366449  0.95109336     0.05400
C697        C  0.02762315  0.63607412  0.47439862    -0.15200
C698        C  0.02454070  0.61627138  0.52520701     0.05400
C699        C  0.49816033  0.63787087  0.55067223     0.05400
C700        C  0.47761435  0.67907889  0.52726752    -0.15200
H701        H  0.45918787  0.69636590  0.05017635     0.07400
H702        H  0.04599231  0.61911550  0.45122120     0.07400
N703        N  0.44984825  0.41585378  0.89733035    -0.00400
C704        C  0.41885056  0.41211370  0.88173022     0.02200
C705        C  0.40182577  0.73386029  0.92369384    -0.20700
C706        C  0.42241874  0.72768456  0.96584042    -0.20900
C707        C  0.45278936  0.39922951  0.94888076     0.02100
H708        H  0.37823242  0.72197767  0.92330173     0.15900
H709        H  0.41582701  0.71096170  0.00220384     0.15900
N710        N  0.47009759  0.44882905  0.87089214    -0.00400
C711        C  0.46752465  0.46656978  0.82005175     0.02200
C712        C  0.49146768  0.49864299  0.81093160    -0.18300
C713        C  0.50860464  0.50218117  0.85660704    -0.20900
C714        C  0.49452209  0.47264569  0.89283364     0.02100
H715        H  0.49278725  0.52423448  0.77722708     0.15900
H716        H  0.52640050  0.52892593  0.86399269     0.15900
N717        N  0.46757440  0.60326250  0.62281061    -0.00400
C718        C  0.46471629  0.62132731  0.67127076     0.02200
C719        C  0.48923263  0.31816160  0.68285093    -0.20700
C720        C  0.50752049  0.32006325  0.64128616    -0.20900
C721        C  0.49348935  0.62503609  0.60467537     0.02100
H722        H  0.48985724  0.34486874  0.71320320     0.15900
H723        H  0.52551912  0.34668680  0.63492157     0.15900
N724        N  0.44586508  0.57445339  0.59392038    -0.00400
C725        C  0.41387102  0.57669878  0.60179485     0.02200
C726        C  0.39694168  0.57043234  0.55623503    -0.20700
C727        C  0.41885616  0.55888701  0.52042266    -0.20900
C728        C  0.44921483  0.55846198  0.54433029     0.02100
H729        H  0.37168066  0.56519490  0.55175423     0.15900
H730        H  0.41264996  0.54482864  0.48325849     0.15900
N731        N  0.27995365  0.37138804  0.62766784    -0.00400
C732        C  0.29330362  0.33456940  0.66332972     0.02200
C733        C  0.27175180  0.63256652  0.67442876    -0.20700
C734        C  0.24510608  0.64563232  0.64235039    -0.20900
C735        C  0.25177936  0.35342863  0.61029457     0.02100
H736        H  0.27556835  0.59949972  0.70142672     0.15900
H737        H  0.22547943  0.62191911  0.63662365     0.15900
N738        N  0.28320527  0.42514621  0.63169539    -0.00400
C739        C  0.28969528  0.44437457  0.67883094     0.02200
C740        C  0.26812609  0.48590666  0.68619844    -0.20700
C741        C  0.25261449  0.49906208  0.63973652    -0.20900
C742        C  0.26150328  0.46134936  0.60697107     0.02100
H743        H  0.26984783  0.51212904  0.71699287     0.15900
H744        H  0.24018505  0.53613967  0.62909839     0.15900
N745        N  0.31059738  0.61945971  0.91149665    -0.00400
C746        C  0.32616466  0.65432271  0.88335040     0.02200
C747        C  0.32231165  0.36942614  0.90186765    -0.20700
C748        C  0.30712924  0.36487814  0.94600186    -0.20900
C749        C  0.29929450  0.64781034  0.95083383     0.02100
H750        H  0.32947642  0.40490316  0.88434525     0.15900
H751        H  0.29855921  0.39677826  0.96824085     0.15900
N752        N  0.31321918  0.56434696  0.90918805    -0.00400
C753        C  0.34054458  0.54136131  0.89067261     0.02200
C754        C  0.35844379  0.51252425  0.92902948    -0.20700
C755        C  0.33923654  0.50638650  0.96840127    -0.20900
C756        C  0.31043469  0.53450897  0.95383933     0.02100
H757        H  0.38174714  0.49291184  0.92601640     0.15900
H758        H  0.34469823  0.47820560  0.00023923     0.15900
O759        O  0.41889715  0.51690795  0.79816091    -0.54700
C760        C  0.32217253  0.45599991  0.69535397     0.77900
O761        O  0.37282909  0.50320019  0.82898080    -0.55900
C762        C  0.43716278  0.47762934  0.78903028     0.77900
C763        C  0.40105228  0.55500112  0.64921554     0.80300
Cd764      Cd  0.37523161  0.50524042  0.73758262     1.37500
O765        O  0.33634508  0.43806956  0.73741385    -0.54700
O766        O  0.41193692  0.51091436  0.66796098    -0.53500
C767        C  0.34823665  0.53228858  0.83606246     0.80200
O768        O  0.37825820  0.57799099  0.67210481    -0.55900
O769        O  0.33539973  0.49022309  0.67051499    -0.54300
O770        O  0.42797078  0.45011576  0.75272038    -0.54300
O771        O  0.33359922  0.55312251  0.79521051    -0.53500
O772        O  0.33483915  0.67806728  0.79840010    -0.54700
C773        C  0.43516761  0.63241502  0.69800895     0.77900
O774        O  0.34684129  0.36175738  0.67783647    -0.55900
C775        C  0.34399833  0.64865754  0.83739335     0.77900
C776        C  0.40918206  0.38924645  0.83349998     0.80300
Cd777      Cd  0.38231910  0.66442600  0.75565551     1.37500
O778        O  0.41885102  0.67558892  0.68882073    -0.54700
O779        O  0.38540400  0.74157452  0.80438415    -0.53500
C780        C  0.32601388  0.33073515  0.68827545     0.80200
O781        O  0.42293226  0.34688153  0.82151736    -0.55900
O782        O  0.42656690  0.26903676  0.73408605    -0.54300
O783        O  0.37105777  0.28899436  0.83695748    -0.54300
O784        O  0.33422221  0.62896982  0.72305885    -0.53500
C785        C  0.21620301  0.68418560  0.02687768     0.05400
C786        C  0.24637758  0.67802509  0.05483909     0.05400
C787        C  0.27287310  0.65436516  0.03110330    -0.15200
C788        C  0.27094307  0.97396241  0.47976880     0.05400
C789        C  0.24106793  0.97941017  0.45276054     0.05400
C790        C  0.21461519  0.00130814  0.47624377    -0.15200
H791        H  0.19254699  0.00926648  0.45258358     0.07400
H792        H  0.29624390  0.65043490  0.05136486     0.07400
C793        C  0.28010360  0.85152284  0.47625044     0.05400
C794        C  0.24986927  0.85398978  0.44863160     0.05400
C795        C  0.22413235  0.83236975  0.97255837    -0.15200
C796        C  0.22708182  0.80952629  0.02353107     0.05400
C797        C  0.25752990  0.80552449  0.05012329     0.05400
C798        C  0.28291220  0.82736056  0.02661475    -0.15200
H799        H  0.30493272  0.82812530  0.04993137     0.07400
H800        H  0.20078661  0.83595143  0.95227173     0.07400
N801        N  0.03591842  0.71357593  0.37856971    -0.00400
C802        C  0.03732958  0.69840550  0.32893071     0.02200
C803        C  0.01292306  0.00135797  0.31753296    -0.20700
C804        C  0.99619888  0.99615189  0.36048528    -0.20900
C805        C  0.01100203  0.68983577  0.39729176     0.02100
H806        H  0.01154917  0.97652533  0.28571264     0.15900
H807        H  0.97853440  0.96897836  0.36682806     0.15900
N808        N  0.05800211  0.74148460  0.40766302    -0.00400
C809        C  0.09003647  0.73926488  0.39978897     0.02200
C810        C  0.10655333  0.74997990  0.44443967    -0.20700
C811        C  0.08444770  0.76410855  0.47907105    -0.20900
C812        C  0.05429253  0.76039278  0.45610290     0.02100
H813        H  0.13157274  0.75712493  0.44812043     0.15900
H814        H  0.09021834  0.78212935  0.51451987     0.15900
N815        N  0.21535485  0.95372473  0.37179012    -0.00400
C816        C  0.20321043  0.98677657  0.33164679     0.02200
C817        C  0.21926582  0.69727080  0.32891665    -0.20700
C818        C  0.24084176  0.69329075  0.36984796    -0.20900
C819        C  0.23756504  0.98020414  0.39637318     0.02100
H820        H  0.21326640  0.73125856  0.30354559     0.15900
H821        H  0.25324044  0.72488862  0.38371678     0.15900
N822        N  0.21867574  0.89874840  0.37059533    -0.00400
C823        C  0.21238847  0.87631154  0.32550343     0.02200
C824        C  0.23728938  0.84068048  0.31575413    -0.20700
C825        C  0.25820169  0.83699497  0.35799323    -0.20900
C826        C  0.24546062  0.87036877  0.39262625     0.02100
H827        H  0.23709503  0.81296143  0.28615017     0.15900
H828        H  0.27722574  0.80655436  0.36630035     0.15900
N829        N  0.05440135  0.89628127  0.10235932    -0.00400
C830        C  0.08571668  0.89685239  0.11712141     0.02200
C831        C  0.10324741  0.56978892  0.07438181    -0.20700
C832        C  0.08199800  0.57900810  0.03287729    -0.20900
C833        C  0.05143987  0.91253510  0.05105907     0.02100
H834        H  0.12745325  0.58023290  0.07404732     0.15900
H835        H  0.08894269  0.59424274  0.99612635     0.15900
N836        N  0.03342146  0.86540040  0.12950998    -0.00400
C837        C  0.03653209  0.84740138  0.18023224     0.02200
C838        C  0.01286165  0.81490796  0.18965734    -0.20700
C839        C  0.99494040  0.81232256  0.14447006    -0.20900
C840        C  0.00844159  0.84249488  0.10803749     0.02100
H841        H  0.01186321  0.78914189  0.22333916     0.15900
H842        H  0.97700148  0.78575761  0.13734784     0.15900
O843        O  0.17537068  0.77645631  0.21829944    -0.54700
C844        C  0.10254916  0.76095218  0.35233752     0.77900
O845        O  0.16579617  0.88053340  0.26739879    -0.55900
C846        C  0.16313754  0.80001134  0.17702362     0.77900
C847        C  0.06695428  0.83890021  0.21186445     0.80300
Cd848      Cd  0.12792122  0.81326214  0.26712194     1.37500
O849        O  0.12426205  0.73724006  0.32745393    -0.54700
O850        O  0.08614855  0.80053638  0.20385930    -0.53500
C851        C  0.18013739  0.86343399  0.30961366     0.80200
O852        O  0.07540102  0.86784444  0.24747533    -0.55900
O853        O  0.09289439  0.80660725  0.33658553    -0.54300
O854        O  0.13454713  0.81843415  0.17766392    -0.54300
O855        O  0.16693659  0.82995081  0.33559980    -0.53500
N856        N  0.17764218  0.73143337  0.08638586    -0.00400
C857        C  0.14636360  0.72465769  0.09552311     0.02200
C858        C  0.13318203  0.02859194  0.05911395    -0.20700
C859        C  0.15740167  0.01089249  0.03060787    -0.20900
C860        C  0.18461124  0.69983851  0.04754102     0.02100
H861        H  0.11009221  0.01306582  0.05977279     0.15900
H862        H  0.15552702  0.98144130  0.00301440     0.15900
N863        N  0.19075149  0.77950664  0.09381338    -0.00400
C864        C  0.18044295  0.81167868  0.13085021     0.02200
C865        C  0.17902020  0.86235436  0.11336023    -0.20700
C866        C  0.18837058  0.86311419  0.06429962    -0.20900
C867        C  0.19767252  0.81279783  0.05360597     0.02100
H868        H  0.17204505  0.89581343  0.13448302     0.15900
H869        H  0.19316259  0.89769855  0.04224749     0.15900
O870        O  0.10710393  0.71902407  0.15836969    -0.54700
C871        C  0.06582898  0.68967890  0.29967938     0.77900
O872        O  0.12295194  0.91637899  0.18503501    -0.55900
C873        C  0.13609164  0.71163589  0.14688000     0.77900
C874        C  0.17296776  0.98560931  0.30084725     0.80300
Cd875      Cd  0.11560997  0.99312933  0.23437133     1.37500
O876        O  0.07251367  0.72067230  0.26336549    -0.54700
O877        O  0.16842723  0.67986988  0.25946567    -0.53500
C878        C  0.09524351  0.92325528  0.16313212     0.80200
O879        O  0.14967133  0.96136036  0.31471823    -0.55900
O880        O  0.08294354  0.98065709  0.30644096    -0.54300
O881        O  0.15560595  0.02065883  0.17974510    -0.54300
O882        O  0.07590984  0.62291245  0.18132826    -0.53500
C883        C  0.02524159  0.78970248  0.47802886     0.05400
C884        C  0.49884537  0.81403419  0.44791242     0.05400
C885        C  0.47615699  0.84902743  0.46958892    -0.15200
C886        C  0.47744770  0.85991771  0.02259580     0.05400
C887        C  0.00365114  0.83479674  0.05287194     0.05400
C888        C  0.02630397  0.79991239  0.03107209    -0.15200
H889        H  0.04537145  0.78080679  0.05656442     0.07400
H890        H  0.45729054  0.86810103  0.44383410     0.07400
C891        C  0.48045455  0.69818871  0.47611970     0.05400
C892        C  0.00692127  0.67698526  0.45110576     0.05400
C893        C  0.02768466  0.96945012  0.97439413    -0.15200
C894        C  0.02458467  0.94960183  0.02518743     0.05400
C895        C  0.49810539  0.97119146  0.05071493     0.05400
C896        C  0.47757606  0.01242609  0.02731821    -0.15200
H897        H  0.45915622  0.02973142  0.55023331     0.07400
H898        H  0.04607282  0.95253646  0.95122711     0.07400
N899        N  0.44986292  0.74921757  0.39729886    -0.00400
C900        C  0.41887082  0.74544728  0.38168228     0.02200
C901        C  0.40183617  0.06717167  0.42369295    -0.20700
C902        C  0.42240777  0.06105856  0.46586051    -0.20900
C903        C  0.45279909  0.73257850  0.44884710     0.02100
H904        H  0.37824528  0.05522377  0.42328105     0.15900
H905        H  0.41580996  0.04433373  0.50222491     0.15900
N906        N  0.47010013  0.78223584  0.37088369    -0.00400
C907        C  0.46750655  0.80004552  0.32006465     0.02200
C908        C  0.49142993  0.83216081  0.31096204    -0.18300
C909        C  0.50857883  0.83565378  0.35663476    -0.20900
C910        C  0.49452446  0.80604460  0.39283683     0.02100
H911        H  0.49273931  0.85777065  0.27727148     0.15900
H912        H  0.52636708  0.86240855  0.36404284     0.15900
N913        N  0.46752712  0.93654506  0.12284903    -0.00400
C914        C  0.46468208  0.95456688  0.17132892     0.02200
C915        C  0.48924877  0.65148294  0.18280594    -0.20700
C916        C  0.50754239  0.65337047  0.14124591    -0.20900
C917        C  0.49343405  0.95834134  0.10471446     0.02100
H918        H  0.48987924  0.67818214  0.21315977     0.15900
H919        H  0.52555094  0.67998257  0.13488775     0.15900
N920        N  0.44581588  0.90774545  0.09395169    -0.00400
C921        C  0.41381997  0.90999601  0.10181643     0.02200
C922        C  0.39689772  0.90368414  0.05626001    -0.20700
C923        C  0.41881889  0.89210160  0.02046922    -0.20900
C924        C  0.44917448  0.89171684  0.04437613     0.02100
H925        H  0.37164168  0.89843567  0.05177950     0.15900
H926        H  0.41262064  0.87800412  0.98331597     0.15900
N927        N  0.27996762  0.70471396  0.12763989    -0.00400
C928        C  0.29332513  0.66788378  0.16328169     0.02200
C929        C  0.27172254  0.96598209  0.17447761    -0.20700
C930        C  0.24508508  0.97905260  0.14238185    -0.20900
C931        C  0.25179071  0.68675516  0.11027588     0.02100
H932        H  0.27552341  0.93292527  0.20148518     0.15900
H933        H  0.22545685  0.95533892  0.13665401     0.15900
N934        N  0.28320767  0.75846817  0.13172409    -0.00400
C935        C  0.28968531  0.77767052  0.17887639     0.02200
C936        C  0.26812333  0.81921900  0.18623385    -0.20700
C937        C  0.25264698  0.83241504  0.13975235    -0.20900
C938        C  0.26152880  0.79469504  0.10698987     0.02100
H939        H  0.26984651  0.84544037  0.21703280     0.15900
H940        H  0.24024302  0.86951384  0.12911102     0.15900
N941        N  0.31063034  0.95279805  0.41157987    -0.00400
C942        C  0.32620117  0.98768185  0.38346596     0.02200
C943        C  0.32229883  0.70271709  0.40182994    -0.20700
C944        C  0.30710678  0.69816780  0.44595543    -0.20900
C945        C  0.29931634  0.98111901  0.45092727     0.02100
H946        H  0.32946941  0.73819542  0.38431529     0.15900
H947        H  0.29853512  0.73006695  0.46819763     0.15900
N948        N  0.31323411  0.89769034  0.40921608    -0.00400
C949        C  0.34055605  0.87471050  0.39068818     0.02200
C950        C  0.35845763  0.84585232  0.42902929    -0.20700
C951        C  0.33924925  0.83968783  0.46839380    -0.20900
C952        C  0.31044874  0.86781892  0.45384462     0.02100
H953        H  0.38174979  0.82622723  0.42599779     0.15900
H954        H  0.34470703  0.81148175  0.50020998     0.15900
O955        O  0.41884385  0.85030033  0.29820731    -0.54700
C956        C  0.32215728  0.78931961  0.19539021     0.77900
O957        O  0.37275943  0.83640015  0.32898470    -0.55900
C958        C  0.43714145  0.81106723  0.28905088     0.77900
C959        C  0.40100060  0.88829384  0.14923091     0.80300
Cd960      Cd  0.37520280  0.83856269  0.23760553     1.37500
O961        O  0.33637203  0.77130923  0.23738988    -0.54700
O962        O  0.41183994  0.84415592  0.16790386    -0.53500
C963        C  0.34821951  0.86560456  0.33607600     0.80200
O964        O  0.37824803  0.91132825  0.17217903    -0.55900
O965        O  0.33533179  0.82364712  0.17061263    -0.54300
O966        O  0.42797856  0.78355958  0.25271886    -0.54300
O967        O  0.33361597  0.88652366  0.29523341    -0.53500
O968        O  0.33488837  0.01155420  0.29854982    -0.54700
C969        C  0.43513772  0.96568279  0.19806424     0.77900
O970        O  0.34686044  0.69508299  0.17776931    -0.55900
C971        C  0.34402423  0.98205467  0.33749188     0.77900
C972        C  0.40921438  0.72258360  0.33344096     0.80300
Cd973      Cd  0.38231080  0.99776395  0.25570953     1.37500
O974        O  0.41883809  0.00887098  0.18887308    -0.54700
O975        O  0.38543962  0.07494343  0.30437835    -0.53500
C976        C  0.32603417  0.66406222  0.18822379     0.80200
O977        O  0.42297270  0.68022890  0.32144869    -0.55900
O978        O  0.42657267  0.60238079  0.23402813    -0.54300
O979        O  0.37107409  0.62233104  0.33693476    -0.54300
O980        O  0.33419157  0.96234479  0.22312770    -0.53500
C981        C  0.21619941  0.68415740  0.52688964     0.05400
C982        C  0.24637607  0.67801675  0.55484682     0.05400
C983        C  0.27287371  0.65436757  0.53110928    -0.15200
C984        C  0.27094480  0.97396773  0.97976423     0.05400
C985        C  0.24106861  0.97940715  0.95275905     0.05400
C986        C  0.21461511  0.00129841  0.97624467    -0.15200
H987        H  0.19254329  0.00925234  0.95258282     0.07400
H988        H  0.29624794  0.65044858  0.55137027     0.07400
C989        C  0.28010878  0.85152976  0.97625525     0.05400
C990        C  0.24987513  0.85399974  0.94863540     0.05400
C991        C  0.22412894  0.83235210  0.47255471    -0.15200
C992        C  0.22707932  0.80951004  0.52352844     0.05400
C993        C  0.25752738  0.80551735  0.55012196     0.05400
C994        C  0.28290774  0.82735595  0.52661068    -0.15200
H995        H  0.30493185  0.82812517  0.54993030     0.07400
H996        H  0.20078192  0.83592922  0.45226669     0.07400
N997        N  0.03591440  0.71358580  0.87857467    -0.00400
C998        C  0.03732145  0.69842319  0.82893264     0.02200
C999        C  0.01293112  0.00133126  0.81753654    -0.20700
C1000       C  0.99620491  0.99613288  0.86048675    -0.20900
C1001       C  0.01099953  0.68984326  0.89729813     0.02100
H1002       H  0.01156083  0.97648864  0.78571902     0.15900
H1003       H  0.97854083  0.96895608  0.86683440     0.15900
N1004       N  0.05799942  0.74149321  0.90766704    -0.00400
C1005       C  0.09003395  0.73927353  0.89979297     0.02200
C1006       C  0.10654972  0.75000428  0.94443975    -0.20700
C1007       C  0.08444324  0.76414069  0.97906679    -0.20900
C1008       C  0.05428870  0.76041232  0.95610254     0.02100
H1009       H  0.13156751  0.75715235  0.94811818     0.15900
H1010       H  0.09021278  0.78217076  0.01451252     0.15900
N1011       N  0.21536004  0.95372303  0.87178363    -0.00400
C1012       C  0.20321495  0.98677313  0.83163932     0.02200
C1013       C  0.21926969  0.69725770  0.82889769    -0.20700
C1014       C  0.24084865  0.69328020  0.86982508    -0.20900
C1015       C  0.23756522  0.98020776  0.89637192     0.02100
H1016       H  0.21327431  0.73123681  0.80352130     0.15900
H1017       H  0.25325223  0.72487650  0.88368171     0.15900
N1018       N  0.21868356  0.89874630  0.87059385    -0.00400
C1019       C  0.21239592  0.87630131  0.82550700     0.02200
C1020       C  0.23729597  0.84066518  0.81576521    -0.20700
C1021       C  0.25820880  0.83698804  0.85800309    -0.20900
C1022       C  0.24546857  0.87037070  0.89262880     0.02100
H1023       H  0.23710143  0.81294009  0.78616623     0.15900
H1024       H  0.27723311  0.80654748  0.86631610     0.15900
N1025       N  0.05440521  0.89627716  0.60235477    -0.00400
C1026       C  0.08572131  0.89684894  0.61711485     0.02200
C1027       C  0.10324578  0.56978857  0.57438489    -0.20700
C1028       C  0.08199639  0.57899904  0.53287770    -0.20900
C1029       C  0.05144121  0.91253892  0.55105599     0.02100
H1030       H  0.12744759  0.58022662  0.57404832     0.15900
H1031       H  0.08894126  0.59422388  0.49612757     0.15900
N1032       N  0.03342661  0.86539607  0.62950705    -0.00400
C1033       C  0.03653648  0.84740271  0.68023140     0.02200
C1034       C  0.01286625  0.81490960  0.68965926    -0.20700
C1035       C  0.99494647  0.81231753  0.64447158    -0.20900
C1036       C  0.00844766  0.84248600  0.60803602     0.02100
H1037       H  0.01186762  0.78914758  0.72334388     0.15900
H1038       H  0.97700703  0.78574991  0.63735188     0.15900
O1039       O  0.17537727  0.77645501  0.71830611    -0.54700
C1040       C  0.10254754  0.76095293  0.85233858     0.77900
O1041       O  0.16580574  0.88052091  0.76739884    -0.55900
C1042       C  0.16314095  0.80000010  0.67702726     0.77900
C1043       C  0.06695886  0.83890333  0.71186442     0.80300
Cd1044     Cd  0.12792537  0.81325861  0.76712624     1.37500
O1045       O  0.12425913  0.73723554  0.82745642    -0.54700
O1046       O  0.08615430  0.80054155  0.70385799    -0.53500
C1047       C  0.18014408  0.86342662  0.80961755     0.80200
O1048       O  0.07540468  0.86784633  0.74747710    -0.55900
O1049       O  0.09289670  0.80660911  0.83658542    -0.54300
O1050       O  0.13454919  0.81841692  0.67766729    -0.54300
O1051       O  0.16693942  0.82995107  0.83560815    -0.53500
N1052       N  0.17763983  0.73141436  0.58639279    -0.00400
C1053       C  0.14636047  0.72464315  0.59553027     0.02200
C1054       C  0.13317970  0.02859828  0.55910591    -0.20700
C1055       C  0.15740113  0.01089451  0.53060448    -0.20900
C1056       C  0.18460802  0.69981315  0.54755291     0.02100
H1057       H  0.11009038  0.01307494  0.55976209     0.15900
H1058       H  0.15552747  0.98144361  0.50301231     0.15900
N1059       N  0.19075121  0.77948719  0.59381475    -0.00400
C1060       C  0.18044359  0.81166282  0.63084923     0.02200
C1061       C  0.17901581  0.86233695  0.61335206    -0.20700
C1062       C  0.18836296  0.86309174  0.56429007    -0.20900
C1063       C  0.19766891  0.81277585  0.55360199     0.02100
H1064       H  0.17204114  0.89579548  0.63447121     0.15900
H1065       H  0.19315211  0.89767914  0.54223076     0.15900
O1066       O  0.10709745  0.71902092  0.65837186    -0.54700
C1067       C  0.06581949  0.68969346  0.79967977     0.77900
O1068       O  0.12295460  0.91636591  0.68503599    -0.55900
C1069       C  0.13608632  0.71163267  0.64688796     0.77900
C1070       C  0.17297386  0.98560255  0.80083645     0.80300
Cd1071     Cd  0.11561447  0.99312432  0.73436386     1.37500
O1072       O  0.07250494  0.72068524  0.76336486    -0.54700
O1073       O  0.16841588  0.67987728  0.75947750    -0.53500
C1074       C  0.09524815  0.92325072  0.66312569     0.80200
O1075       O  0.14967716  0.96135421  0.81470727    -0.55900
O1076       O  0.08294965  0.98064345  0.80643348    -0.54300
O1077       O  0.15560589  0.02066967  0.67973865    -0.54300
O1078       O  0.07590072  0.62289839  0.68135276    -0.53500
C1079       C  0.02523546  0.78971422  0.97802965     0.05400
C1080       C  0.49884102  0.81403673  0.94791788     0.05400
C1081       C  0.47615165  0.84902838  0.96959391    -0.15200
C1082       C  0.47745410  0.85991657  0.52259092     0.05400
C1083       C  0.00365703  0.83478551  0.55287054     0.05400
C1084       C  0.02631016  0.79990143  0.53107134    -0.15200
H1085       H  0.04537622  0.78079528  0.55656439     0.07400
H1086       H  0.45728497  0.86810252  0.94383741     0.07400
C1087       C  0.48045497  0.69818812  0.97612127     0.05400
C1088       C  0.00691953  0.67699038  0.95111149     0.05400
C1089       C  0.02768146  0.96945470  0.47439431    -0.15200
C1090       C  0.02458246  0.94960097  0.52518597     0.05400
C1091       C  0.49810788  0.97119209  0.55071483     0.05400
C1092       C  0.47757690  0.01242533  0.52731885    -0.15200
H1093       H  0.45915976  0.02973433  0.05022977     0.07400
H1094       H  0.04607272  0.95254206  0.45122303     0.07400
N1095       N  0.44986217  0.74921685  0.89729951    -0.00400
C1096       C  0.41887063  0.74544355  0.88167973     0.02200
C1097       C  0.40183820  0.06719245  0.92369723    -0.20700
C1098       C  0.42241025  0.06107929  0.96586452    -0.20900
C1099       C  0.45279782  0.73257216  0.94884602     0.02100
H1100       H  0.37824302  0.05525923  0.92328877     0.15900
H1101       H  0.41581009  0.04436498  0.00223442     0.15900
N1102       N  0.47009928  0.78223687  0.87088648    -0.00400
C1103       C  0.46750668  0.80004678  0.82006784     0.02200
C1104       C  0.49142986  0.83216305  0.81096622    -0.18300
C1105       C  0.50857650  0.83565864  0.85664115    -0.20900
C1106       C  0.49452183  0.80604824  0.89284197     0.02100
H1107       H  0.49274036  0.85776932  0.77727679     0.15900
H1108       H  0.52636362  0.86241475  0.86405041     0.15900
N1109       N  0.46753028  0.93653710  0.62284849    -0.00400
C1110       C  0.46468629  0.95455256  0.67133149     0.02200
C1111       C  0.48924894  0.65148890  0.68280090    -0.20700
C1112       C  0.50754344  0.65337604  0.64124177    -0.20900
C1113       C  0.49343682  0.95833617  0.60471434     0.02100
H1114       H  0.48987790  0.67819098  0.71315405     0.15900
H1115       H  0.52554963  0.67998823  0.63488285     0.15900
N1116       N  0.44582034  0.90773567  0.59395041    -0.00400
C1117       C  0.41382410  0.90998085  0.60181583     0.02200
C1118       C  0.39690250  0.90366591  0.55626023    -0.20700
C1119       C  0.41882367  0.89209009  0.52046786    -0.20900
C1120       C  0.44917946  0.89171040  0.54437397     0.02100
H1121       H  0.37164442  0.89841252  0.55177951     0.15900
H1122       H  0.41262664  0.87799460  0.48331594     0.15900
N1123       N  0.27996570  0.70471415  0.62764496    -0.00400
C1124       C  0.29332496  0.66788559  0.66328621     0.02200
C1125       C  0.27172840  0.96598450  0.67447811    -0.20700
C1126       C  0.24508926  0.97905335  0.64238725    -0.20900
C1127       C  0.25178904  0.68675222  0.61028272     0.02100
H1128       H  0.27553237  0.93292291  0.70148966     0.15900
H1129       H  0.22545956  0.95533608  0.63666124     0.15900
N1130       N  0.28320431  0.75846879  0.63172834    -0.00400
C1131       C  0.28968050  0.77767372  0.67888009     0.02200
C1132       C  0.26811866  0.81922492  0.68623266    -0.20700
C1133       C  0.25264344  0.83241715  0.63974827    -0.20900
C1134       C  0.26152620  0.79469427  0.60698979     0.02100
H1135       H  0.26983960  0.84544336  0.71702553     0.15900
H1136       H  0.24023774  0.86951398  0.62910397     0.15900
N1137       N  0.31063540  0.95280062  0.91157969    -0.00400
C1138       C  0.32620831  0.98768116  0.88346538     0.02200
C1139       C  0.32229744  0.70271129  0.90182207    -0.20700
C1140       C  0.30710938  0.69816061  0.94595120    -0.20900
C1141       C  0.29931658  0.98112757  0.95091966     0.02100
H1142       H  0.32946892  0.73818857  0.88430930     0.15900
H1143       H  0.29854032  0.73005937  0.96819537     0.15900
N1144       N  0.31323998  0.89769287  0.90922163    -0.00400
C1145       C  0.34056066  0.87471018  0.89069282     0.02200
C1146       C  0.35846130  0.84584866  0.92903284    -0.20700
C1147       C  0.33925399  0.83968925  0.96839933    -0.20900
C1148       C  0.31045462  0.86782419  0.95385192     0.02100
H1149       H  0.38175243  0.82621759  0.92599948     0.15900
H1150       H  0.34471113  0.81148152  0.00021660     0.15900
O1151       O  0.41884263  0.85029956  0.79821462    -0.54700
C1152       C  0.32215270  0.78932060  0.69539854     0.77900
O1153       O  0.37276077  0.83639819  0.82898742    -0.55900
C1154       C  0.43714171  0.81106953  0.78905386     0.77900
C1155       C  0.40100405  0.88828578  0.64923329     0.80300
Cd1156     Cd  0.37520210  0.83856346  0.73760997     1.37500
O1157       O  0.33636334  0.77131722  0.73740388    -0.54700
O1158       O  0.41184579  0.84415299  0.66791682    -0.53500
C1159       C  0.34822287  0.86560667  0.83608005     0.80200
O1160       O  0.37824761  0.91132070  0.67217290    -0.55900
O1161       O  0.33533280  0.82363786  0.67061579    -0.54300
O1162       O  0.42797973  0.78356427  0.75271925    -0.54300
O1163       O  0.33362001  0.88653015  0.79523853    -0.53500
O1164       O  0.33489206  0.01153688  0.79854501    -0.54700
C1165       C  0.43514153  0.96567219  0.69806587     0.77900
O1166       O  0.34685899  0.69509101  0.67777135    -0.55900
C1167       C  0.34403170  0.98204849  0.83749294     0.77900
C1168       C  0.40921623  0.72258287  0.83343620     0.80300
Cd1169     Cd  0.38231638  0.99776478  0.75571049     1.37500
O1170       O  0.41884518  0.00886335  0.68887566    -0.54700
O1171       O  0.38543793  0.07494121  0.80438779    -0.53500
C1172       C  0.32603543  0.66406432  0.68822292     0.80200
O1173       O  0.42297464  0.68022847  0.82144327    -0.55900
O1174       O  0.42657312  0.60238129  0.73402090    -0.54300
O1175       O  0.37106918  0.62232544  0.83692220    -0.54300
O1176       O  0.33419732  0.96235166  0.72312405    -0.53500
C1177       C  0.71618768  0.01752821  0.02688382     0.05400
C1178       C  0.74636548  0.01139361  0.05483554     0.05400
C1179       C  0.77286817  0.98778761  0.03108071    -0.15200
C1180       C  0.77092965  0.30730932  0.47971970     0.05400
C1181       C  0.74105215  0.31277750  0.45272003     0.05400
C1182       C  0.71460361  0.33467823  0.47620898    -0.15200
H1183       H  0.69252863  0.34264472  0.45255398     0.07400
H1184       H  0.79624342  0.98388016  0.05133319     0.07400
C1185       C  0.78009519  0.18486944  0.47625082     0.05400
C1186       C  0.74985962  0.18736094  0.44863211     0.05400
C1187       C  0.72411239  0.16573236  0.97255251    -0.15200
C1188       C  0.72706030  0.14287120  0.02352003     0.05400
C1189       C  0.75750909  0.13885734  0.05011590     0.05400
C1190       C  0.78289225  0.16069477  0.02660922    -0.15200
H1191       H  0.80491642  0.16145028  0.04993120     0.07400
H1192       H  0.70076504  0.16932415  0.95226478     0.07400
N1193       N  0.53589603  0.04693456  0.37855595    -0.00400
C1194       C  0.53730463  0.03175774  0.32891710     0.02200
C1195       C  0.51292594  0.33465880  0.31755083    -0.20700
C1196       C  0.49620287  0.32945461  0.36050389    -0.20900
C1197       C  0.51098821  0.02318323  0.39728924     0.02100
H1198       H  0.51154824  0.30983415  0.28572526     0.15900
H1199       H  0.47853359  0.30228471  0.36684766     0.15900
N1200       N  0.55798277  0.07484068  0.40764620    -0.00400
C1201       C  0.59001828  0.07258694  0.39977753     0.02200
C1202       C  0.60653904  0.08327139  0.44443513    -0.20700
C1203       C  0.58443613  0.09741983  0.47906532    -0.20900
C1204       C  0.55427805  0.09374320  0.45609309     0.02100
H1205       H  0.63156138  0.09038524  0.44812199     0.15900
H1206       H  0.59021411  0.11542571  0.51452199     0.15900
N1207       N  0.71534017  0.28709054  0.37176231    -0.00400
C1208       C  0.70318908  0.32013766  0.33161961     0.02200
C1209       C  0.71925722  0.03061926  0.32889364    -0.20700
C1210       C  0.74083535  0.02664427  0.36982191    -0.20900
C1211       C  0.73754453  0.31358165  0.39633873     0.02100
H1212       H  0.71326431  0.06459939  0.30350879     0.15900
H1213       H  0.75324035  0.05824108  0.38367445     0.15900
N1214       N  0.71866891  0.23211331  0.37058246    -0.00400
C1215       C  0.71239442  0.20966839  0.32549168     0.02200
C1216       C  0.73730628  0.17405397  0.31575254    -0.20700
C1217       C  0.75821191  0.17038182  0.35799790    -0.20900
C1218       C  0.74545593  0.20374680  0.39262611     0.02100
H1219       H  0.73712163  0.14632389  0.28615198     0.15900
H1220       H  0.77723862  0.13994785  0.36631474     0.15900
N1221       N  0.55440157  0.22963403  0.10236768    -0.00400
C1222       C  0.58571640  0.23021589  0.11712352     0.02200
C1223       C  0.60324050  0.90310877  0.07438000    -0.20700
C1224       C  0.58199185  0.91234691  0.03287567    -0.20900
C1225       C  0.55143374  0.24589581  0.05107007     0.02100
H1226       H  0.62745101  0.91353845  0.07404979     0.15900
H1227       H  0.58893752  0.92758559  0.99612888     0.15900
N1228       N  0.53343030  0.19874318  0.12952428    -0.00400
C1229       C  0.53655188  0.18073731  0.18024464     0.02200
C1230       C  0.51288900  0.14823335  0.18967740    -0.20700
C1231       C  0.49496512  0.14563944  0.14449384    -0.20900
C1232       C  0.50845523  0.17582416  0.10805754     0.02100
H1233       H  0.51189677  0.12246776  0.22336514     0.15900
H1234       H  0.47703265  0.11906671  0.13737657     0.15900
O1235       O  0.67538657  0.10981321  0.21829637    -0.54700
C1236       C  0.60254260  0.09427077  0.35233207     0.77900
O1237       O  0.66578529  0.21388574  0.26742359    -0.55900
C1238       C  0.66313627  0.13334752  0.17702109     0.77900
C1239       C  0.56697875  0.17223711  0.21186377     0.80300
Cd1240     Cd  0.62793715  0.14658093  0.26713029     1.37500
O1241       O  0.62425405  0.07055096  0.32745183    -0.54700
O1242       O  0.58618492  0.13389920  0.20381996    -0.53500
C1243       C  0.68015104  0.19675553  0.30960923     0.80200
O1244       O  0.57541520  0.20115323  0.24750636    -0.55900
O1245       O  0.59289983  0.13993119  0.33658307    -0.54300
O1246       O  0.63454161  0.15174715  0.17767160    -0.54300
O1247       O  0.66698231  0.16321596  0.33557129    -0.53500
N1248       N  0.67762410  0.06476212  0.08639154    -0.00400
C1249       C  0.64634636  0.05797861  0.09553402     0.02200
C1250       C  0.63317925  0.36189523  0.05911817    -0.20700
C1251       C  0.65740164  0.34419643  0.03061677    -0.20900
C1252       C  0.68459780  0.03315050  0.04756256     0.02100
H1253       H  0.61009382  0.34637013  0.05977978     0.15900
H1254       H  0.65553342  0.31473770  0.00302741     0.15900
N1255       N  0.69073291  0.11283895  0.09380351    -0.00400
C1256       C  0.68042594  0.14501620  0.13083489     0.02200
C1257       C  0.67899104  0.19568908  0.11333335    -0.20700
C1258       C  0.68833407  0.19644155  0.06427003    -0.20900
C1259       C  0.69764672  0.14612669  0.05358702     0.02100
H1260       H  0.67201812  0.22914845  0.13445436     0.15900
H1261       H  0.69312025  0.23103285  0.04220576     0.15900
O1262       O  0.60707874  0.05231600  0.15836342    -0.54700
C1263       C  0.56580456  0.02301739  0.29966634     0.77900
O1264       O  0.62294639  0.24972892  0.18504483    -0.55900
C1265       C  0.63607271  0.04497082  0.14689440     0.77900
C1266       C  0.67294515  0.31896581  0.30083075     0.80300
Cd1267     Cd  0.61559386  0.32648542  0.23436541     1.37500
O1268       O  0.57250283  0.05401337  0.26336290    -0.54700
O1269       O  0.66840546  0.01322058  0.25946868    -0.53500
C1270       C  0.59523864  0.25660778  0.16313972     0.80200
O1271       O  0.64965579  0.29469952  0.31470082    -0.55900
O1272       O  0.58295399  0.31400305  0.30645097    -0.54300
O1273       O  0.65559303  0.35401545  0.17974633    -0.54300
O1274       O  0.57589861  0.95620195  0.18135005    -0.53500
C1275       C  0.52523289  0.12306450  0.47803677     0.05400
C1276       C  0.99881425  0.14735926  0.44791535     0.05400
C1277       C  0.97613134  0.18238067  0.46957321    -0.15200
C1278       C  0.97744798  0.19330932  0.02256596     0.05400
C1279       C  0.50366300  0.16812677  0.05289193     0.05400
C1280       C  0.52631664  0.13324742  0.03108022    -0.15200
H1281       H  0.54538663  0.11413722  0.05656992     0.07400
H1282       H  0.95726848  0.20144235  0.44380972     0.07400
C1283       C  0.98044821  0.03149999  0.47615183     0.05400
C1284       C  0.50691576  0.01033415  0.45110547     0.05400
C1285       C  0.52766798  0.30278295  0.97440498    -0.15200
C1286       C  0.52457083  0.28294703  0.02520171     0.05400
C1287       C  0.99814722  0.30455587  0.05072476     0.05400
C1288       C  0.97760859  0.34577235  0.02731666    -0.15200
H1289       H  0.95917854  0.36307120  0.55023115     0.07400
H1290       H  0.54605032  0.28585761  0.95123733     0.07400
N1291       N  0.94983549  0.08250544  0.39733777    -0.00400
C1292       C  0.91884003  0.07874348  0.38173548     0.02200
C1293       C  0.90182582  0.40051026  0.42372156    -0.20700
C1294       C  0.92241261  0.39436419  0.46587425    -0.20900
C1295       C  0.95278212  0.06586481  0.44888360     0.02100
H1296       H  0.87822884  0.38861136  0.42332733     0.15900
H1297       H  0.91582079  0.37764795  0.50224435     0.15900
N1298       N  0.97007959  0.11549340  0.37090158    -0.00400
C1299       C  0.96751294  0.13322050  0.32005707     0.02200
C1300       C  0.99145226  0.16530183  0.31093727    -0.18300
C1301       C  0.00857779  0.16886275  0.35661863    -0.20900
C1302       C  0.99449640  0.13932632  0.39284562     0.02100
H1303       H  0.99277619  0.19087788  0.27722514     0.15900
H1304       H  0.02637140  0.19561804  0.36400427     0.15900
N1305       N  0.96754908  0.26992864  0.12284310    -0.00400
C1306       C  0.96469065  0.28796537  0.17131406     0.02200
C1307       C  0.98924506  0.98479542  0.18283444    -0.20700
C1308       C  0.00753774  0.98669722  0.14127525    -0.20900
C1309       C  0.99346817  0.29170365  0.10472428     0.02100
H1310       H  0.98986972  0.01150200  0.21319245     0.15900
H1311       H  0.02553927  0.01331611  0.13491908     0.15900
N1312       N  0.94584187  0.24112688  0.09394075    -0.00400
C1313       C  0.91384660  0.24338174  0.10180710     0.02200
C1314       C  0.89691871  0.23716874  0.05623220    -0.20700
C1315       C  0.91883550  0.22564020  0.02041724    -0.20900
C1316       C  0.94919391  0.22516612  0.04434040     0.02100
H1317       H  0.87165592  0.23195530  0.05173520     0.15900
H1318       H  0.91262573  0.21162228  0.98323157     0.15900
N1319       N  0.77995086  0.03803636  0.12765896    -0.00400
C1320       C  0.79330528  0.00120622  0.16330380     0.02200
C1321       C  0.77171199  0.29930578  0.17444632    -0.20700
C1322       C  0.74507337  0.31238070  0.14235449    -0.20900
C1323       C  0.75177796  0.02007775  0.11028043     0.02100
H1324       H  0.77551437  0.26624659  0.20145074     0.15900
H1325       H  0.72544360  0.28866469  0.13662340     0.15900
N1326       N  0.78319859  0.09179200  0.13171423    -0.00400
C1327       C  0.78968532  0.11100538  0.17885842     0.02200
C1328       C  0.76812213  0.15254925  0.18622232    -0.20700
C1329       C  0.75262672  0.16572755  0.13975144    -0.20900
C1330       C  0.76150920  0.12801094  0.10698508     0.02100
H1331       H  0.76985001  0.17877394  0.21701311     0.15900
H1332       H  0.74021418  0.20281997  0.12911409     0.15900
N1333       N  0.81060765  0.28611152  0.41152244    -0.00400
C1334       C  0.82617250  0.32098813  0.38338888     0.02200
C1335       C  0.82228671  0.03608023  0.40179336    -0.20700
C1336       C  0.80710342  0.03154596  0.44592752    -0.20900
C1337       C  0.79930189  0.31444729  0.45086713     0.02100
H1338       H  0.82946975  0.07155056  0.38427326     0.15900
H1339       H  0.79854168  0.06345576  0.46817155     0.15900
N1340       N  0.81323618  0.23099952  0.40920118    -0.00400
C1341       C  0.84056684  0.20802470  0.39069078     0.02200
C1342       C  0.85846095  0.17917309  0.42904575    -0.20700
C1343       C  0.83924565  0.17301969  0.46840455    -0.20900
C1344       C  0.81044556  0.20114733  0.45384153     0.02100
H1345       H  0.88176190  0.15954825  0.42603249     0.15900
H1346       H  0.84470116  0.14482418  0.50023516     0.15900
O1347       O  0.91888802  0.18355218  0.29814728    -0.54700
C1348       C  0.82216159  0.12263999  0.19537280     0.77900
O1349       O  0.87282528  0.16980666  0.32899469    -0.55900
C1350       C  0.93715491  0.14427213  0.28902651     0.77900
C1351       C  0.90102274  0.22164872  0.14921046     0.80300
Cd1352     Cd  0.87522394  0.17186489  0.23758779     1.37500
O1353       O  0.83636526  0.10464800  0.23738760    -0.54700
O1354       O  0.91189024  0.17753481  0.16790797    -0.53500
C1355       C  0.84825012  0.19893284  0.33608027     0.80200
O1356       O  0.87824575  0.24464058  0.17213688    -0.55900
O1357       O  0.83535402  0.15693457  0.17057823    -0.54300
O1358       O  0.92796800  0.11675251  0.25271830    -0.54300
O1359       O  0.83362023  0.21978385  0.29522964    -0.53500
O1360       O  0.83483557  0.34479879  0.29844949    -0.54700
C1361       C  0.93513818  0.29907393  0.19803485     0.77900
O1362       O  0.84684398  0.02839298  0.17779108    -0.55900
C1363       C  0.84399284  0.31534782  0.33741589     0.77900
C1364       C  0.90917790  0.05588375  0.33349677     0.80300
Cd1365     Cd  0.88229586  0.33112115  0.25566651     1.37500
O1366       O  0.91883611  0.34226081  0.18884398    -0.54700
O1367       O  0.88539733  0.40826395  0.30441650    -0.53500
C1368       C  0.82601587  0.99737571  0.18824390     0.80200
O1369       O  0.92293270  0.01352561  0.32150513    -0.55900
O1370       O  0.92656895  0.93568564  0.23405080    -0.54300
O1371       O  0.87104330  0.95564237  0.33692774    -0.54300
O1372       O  0.83418954  0.29566698  0.22307969    -0.53500
C1373       C  0.71618415  0.01752815  0.52688975     0.05400
C1374       C  0.74636131  0.01139115  0.55484450     0.05400
C1375       C  0.77286349  0.98777902  0.53109280    -0.15200
C1376       C  0.77092748  0.30731399  0.97972875     0.05400
C1377       C  0.74105017  0.31278008  0.95272836     0.05400
C1378       C  0.71460061  0.33467746  0.97621815    -0.15200
H1379       H  0.69252847  0.34264226  0.95256511     0.07400
H1380       H  0.79623922  0.98386935  0.55134784     0.07400
C1381       C  0.78009249  0.18487320  0.97625159     0.05400
C1382       C  0.74985605  0.18736403  0.94863355     0.05400
C1383       C  0.72411507  0.16573053  0.47254936    -0.15200
C1384       C  0.72706136  0.14287336  0.52351855     0.05400
C1385       C  0.75750929  0.13886050  0.55011709     0.05400
C1386       C  0.78289454  0.16069317  0.52660993    -0.15200
H1387       H  0.80491612  0.16144608  0.54992800     0.07400
H1388       H  0.70076998  0.16932103  0.45226073     0.07400
N1389       N  0.53589598  0.04691626  0.87855169    -0.00400
C1390       C  0.53730540  0.03173047  0.82891591     0.02200
C1391       C  0.51291870  0.33467592  0.81754212    -0.20700
C1392       C  0.49619889  0.32946527  0.86049846    -0.20900
C1393       C  0.51098703  0.02316832  0.89728711     0.02100
H1394       H  0.51154114  0.30984942  0.78571688     0.15900
H1395       H  0.47853421  0.30229407  0.86684380     0.15900
N1396       N  0.55798425  0.07482216  0.90763918    -0.00400
C1397       C  0.59001951  0.07256701  0.89976598     0.02200
C1398       C  0.60654332  0.08324229  0.94442340    -0.20700
C1399       C  0.58444335  0.09738771  0.97905929    -0.20900
C1400       C  0.55428354  0.09371909  0.95608938     0.02100
H1401       H  0.63156670  0.09035314  0.94810833     0.15900
H1402       H  0.59022440  0.11538819  0.01451465     0.15900
N1403       N  0.71533490  0.28709528  0.87177016    -0.00400
C1404       C  0.70318326  0.32014418  0.83162889     0.02200
C1405       C  0.71925018  0.03064232  0.82889239    -0.20700
C1406       C  0.74082820  0.02666904  0.86982133    -0.20900
C1407       C  0.73754157  0.31358311  0.89634569     0.02100
H1408       H  0.71325184  0.06462085  0.80351667     0.15900
H1409       H  0.75322823  0.05827038  0.88368074     0.15900
N1410       N  0.71866259  0.23211810  0.87058649    -0.00400
C1411       C  0.71238696  0.20967603  0.82549397     0.02200
C1412       C  0.73729904  0.17406266  0.81575208    -0.20700
C1413       C  0.75820559  0.17038853  0.85799667    -0.20900
C1414       C  0.74545034  0.20375088  0.89262754     0.02100
H1415       H  0.73711426  0.14633591  0.78615017     0.15900
H1416       H  0.77723382  0.13995441  0.86631069     0.15900
N1417       N  0.55438787  0.22962464  0.60237798    -0.00400
C1418       C  0.58570264  0.23020637  0.61713574     0.02200
C1419       C  0.60325037  0.90312342  0.57436971    -0.20700
C1420       C  0.58199948  0.91237160  0.53286869    -0.20900
C1421       C  0.55142331  0.24587675  0.55107794     0.02100
H1422       H  0.62745389  0.91355725  0.57404181     0.15900
H1423       H  0.58894432  0.92762494  0.49612488     0.15900
N1424       N  0.53341615  0.19873339  0.62953195    -0.00400
C1425       C  0.53653800  0.18072325  0.68025034     0.02200
C1426       C  0.51287377  0.14822085  0.68968188    -0.20700
C1427       C  0.49494811  0.14563385  0.64449767    -0.20900
C1428       C  0.50843904  0.17581980  0.60806338     0.02100
H1429       H  0.51188059  0.12245622  0.72336423     0.15900
H1430       H  0.47701471  0.11906492  0.63737933     0.15900
O1431       O  0.67538118  0.10982433  0.71828499    -0.54700
C1432       C  0.60254198  0.09425834  0.85232217     0.77900
O1433       O  0.66577708  0.21389405  0.76742403    -0.55900
C1434       C  0.66313109  0.13336204  0.67701147     0.77900
C1435       C  0.56696603  0.17222377  0.71186759     0.80300
Cd1436     Cd  0.62793117  0.14658192  0.76712283     1.37500
O1437       O  0.62425620  0.07054627  0.82744115    -0.54700
O1438       O  0.58617490  0.13389087  0.70381837    -0.53500
C1439       C  0.68014308  0.19676257  0.80960939     0.80200
O1440       O  0.57540253  0.20114018  0.74750970    -0.55900
O1441       O  0.59289426  0.13991718  0.83657480    -0.54300
O1442       O  0.63453648  0.15176143  0.67766323    -0.54300
O1443       O  0.66697487  0.16321970  0.83556798    -0.53500
N1444       N  0.67761811  0.06477353  0.58638665    -0.00400
C1445       C  0.64633961  0.05799468  0.59552666     0.02200
C1446       C  0.63318513  0.36187905  0.55911754    -0.20700
C1447       C  0.65740747  0.34418434  0.53061404    -0.20900
C1448       C  0.68459311  0.03315680  0.54756265     0.02100
H1449       H  0.61010075  0.34634857  0.55978080     0.15900
H1450       H  0.65554080  0.31472832  0.50302737     0.15900
N1451       N  0.69072918  0.11284869  0.59379752    -0.00400
C1452       C  0.68042058  0.14502926  0.63082500     0.02200
C1453       C  0.67898726  0.19570058  0.61332068    -0.20700
C1454       C  0.68833303  0.19644963  0.56425836    -0.20900
C1455       C  0.69764594  0.14613257  0.55358076     0.02100
H1456       H  0.67201325  0.22916368  0.63443977     0.15900
H1457       H  0.69312076  0.23103347  0.54219607     0.15900
O1458       O  0.60707055  0.05231541  0.65835286    -0.54700
C1459       C  0.56580445  0.02299731  0.79966130     0.77900
O1460       O  0.62293712  0.24973271  0.68504462    -0.55900
C1461       C  0.63606573  0.04498454  0.64688661     0.77900
C1462       C  0.67293903  0.31897282  0.80083903     0.80300
Cd1463     Cd  0.61558825  0.32648751  0.73436596     1.37500
O1464       O  0.57250351  0.05400362  0.76336736    -0.54700
O1465       O  0.66841107  0.01321686  0.75944911    -0.53500
C1466       C  0.59522619  0.25660166  0.66315010     0.80200
O1467       O  0.64964994  0.29470444  0.81470655    -0.55900
O1468       O  0.58295066  0.31402443  0.80645874    -0.54300
O1469       O  0.65559216  0.35400328  0.67974386    -0.54300
O1470       O  0.57590769  0.95620326  0.68133343    -0.53500
C1471       C  0.52524253  0.12305047  0.97803530     0.05400
C1472       C  0.99882368  0.14735365  0.94791480     0.05400
C1473       C  0.97614284  0.18237863  0.96957118    -0.15200
C1474       C  0.97743803  0.19331277  0.52256810     0.05400
C1475       C  0.50364724  0.16812667  0.55289650     0.05400
C1476       C  0.52630378  0.13325384  0.53108330    -0.15200
H1477       H  0.54537298  0.11414533  0.55657091     0.07400
H1478       H  0.95728101  0.20144390  0.94380562     0.07400
C1479       C  0.98045320  0.03150084  0.97614891     0.05400
C1480       C  0.50691438  0.01032423  0.95110421     0.05400
C1481       C  0.52766395  0.30276664  0.47441054    -0.15200
C1482       C  0.52456455  0.28293225  0.52520644     0.05400
C1483       C  0.99814337  0.30455044  0.55072503     0.05400
C1484       C  0.97760368  0.34576502  0.52731755    -0.15200
H1485       H  0.95918794  0.36307900  0.05022589     0.07400
H1486       H  0.54604790  0.28583555  0.45124149     0.07400
N1487       N  0.94984390  0.08250275  0.89733290    -0.00400
C1488       C  0.91884957  0.07873621  0.88172660     0.02200
C1489       C  0.90182849  0.40048215  0.92371499    -0.20700
C1490       C  0.92241450  0.39434172  0.96586728    -0.20900
C1491       C  0.95278832  0.06586549  0.94887860     0.02100
H1492       H  0.87823439  0.38856394  0.92331761     0.15900
H1493       H  0.91582562  0.37761306  0.00223504     0.15900
N1494       N  0.97008792  0.11549373  0.87089949    -0.00400
C1495       C  0.96751776  0.13323025  0.82005833     0.02200
C1496       C  0.99145624  0.16531306  0.81093987    -0.18300
C1497       C  0.00858489  0.16886610  0.85662010    -0.20900
C1498       C  0.99450577  0.13932261  0.89284474     0.02100
H1499       H  0.99277858  0.19089412  0.77723010     0.15900
H1500       H  0.02637681  0.19561866  0.86400754     0.15900
N1501       N  0.96754583  0.26993297  0.62284595    -0.00400
C1502       C  0.96468745  0.28798005  0.67131266     0.02200
C1503       C  0.98924636  0.98475241  0.68284267    -0.20700
C1504       C  0.00753489  0.98667080  0.64127946    -0.20900
C1505       C  0.99346644  0.29170096  0.60472469     0.02100
H1506       H  0.98987151  0.01145125  0.71320618     0.15900
H1507       H  0.02553517  0.01329344  0.63492837     0.15900
N1508       N  0.94583686  0.24113178  0.59394651    -0.00400
C1509       C  0.91384226  0.24338746  0.60181762     0.02200
C1510       C  0.89691149  0.23717621  0.55624493    -0.20700
C1511       C  0.91882607  0.22564692  0.52042601    -0.20900
C1512       C  0.94918567  0.22517114  0.54434569     0.02100
H1513       H  0.87164948  0.23196327  0.55175155     0.15900
H1514       H  0.91261450  0.21163187  0.48324404     0.15900
N1515       N  0.77995029  0.03804040  0.62766097    -0.00400
C1516       C  0.79330509  0.00121190  0.66330679     0.02200
C1517       C  0.77171852  0.29928788  0.67442397    -0.20700
C1518       C  0.74507898  0.31236527  0.64233480    -0.20900
C1519       C  0.75177517  0.02008458  0.61028806     0.02100
H1520       H  0.77552232  0.26622437  0.70142443     0.15900
H1521       H  0.72545086  0.28865344  0.63660112     0.15900
N1522       N  0.78320031  0.09179577  0.63171439    -0.00400
C1523       C  0.78968707  0.11100863  0.67885875     0.02200
C1524       C  0.76812044  0.15254780  0.68622550    -0.20700
C1525       C  0.75262360  0.16572472  0.63975557    -0.20900
C1526       C  0.76150915  0.12801306  0.60698655     0.02100
H1527       H  0.76984602  0.17876860  0.71701640     0.15900
H1528       H  0.74020640  0.20281812  0.62912003     0.15900
N1529       N  0.81060742  0.28611984  0.91153153    -0.00400
C1530       C  0.82617201  0.32099851  0.88339930     0.02200
C1531       C  0.82229036  0.03608894  0.90177752    -0.20700
C1532       C  0.80710399  0.03155895  0.94590968    -0.20900
C1533       C  0.79930036  0.31445383  0.95087723     0.02100
H1534       H  0.82947533  0.07155723  0.88425796     0.15900
H1535       H  0.79854297  0.06346586  0.96814817     0.15900
N1536       N  0.81323585  0.23100813  0.90920692    -0.00400
C1537       C  0.84056758  0.20803316  0.89069875     0.02200
C1538       C  0.85845975  0.17917777  0.92905361    -0.20700
C1539       C  0.83924271  0.17302356  0.96840902    -0.20900
C1540       C  0.81044326  0.20115284  0.95384487     0.02100
H1541       H  0.88175855  0.15954421  0.92603999     0.15900
H1542       H  0.84469634  0.14482307  0.00023715     0.15900
O1543       O  0.91888879  0.18355796  0.79816138    -0.54700
C1544       C  0.82216299  0.12264875  0.69537335     0.77900
O1545       O  0.87281713  0.16978981  0.82900471    -0.55900
C1546       C  0.93715809  0.14428305  0.78903265     0.77900
C1547       C  0.90102154  0.22165200  0.64922187     0.80300
Cd1548     Cd  0.87522490  0.17186789  0.73759888     1.37500
O1549       O  0.83637615  0.10463543  0.73737384    -0.54700
O1550       O  0.91188803  0.17753565  0.66791424    -0.53500
C1551       C  0.84824938  0.19893423  0.83608912     0.80200
O1552       O  0.87824764  0.24464450  0.67215401    -0.55900
O1553       O  0.83534410  0.15696979  0.67059781    -0.54300
O1554       O  0.92797219  0.11676789  0.75272041    -0.54300
O1555       O  0.83362617  0.21979671  0.79523837    -0.53500
O1556       O  0.83483543  0.34481773  0.79845989    -0.54700
C1557       C  0.93513598  0.29908742  0.69803545     0.77900
O1558       O  0.84684709  0.02839233  0.67778294    -0.55900
C1559       C  0.84399126  0.31536123  0.83742358     0.77900
C1560       C  0.90918975  0.05587885  0.83348477     0.80300
Cd1561     Cd  0.88229210  0.33112487  0.75566589     1.37500
O1562       O  0.91883181  0.34227243  0.68884399    -0.54700
O1563       O  0.88540371  0.40827142  0.80440251    -0.53500
C1564       C  0.82601809  0.99737718  0.68823958     0.80200
O1565       O  0.92294903  0.01352719  0.82148456    -0.55900
O1566       O  0.92656850  0.93566460  0.73405532    -0.54300
O1567       O  0.87104813  0.95564034  0.83692100    -0.54300
O1568       O  0.83418741  0.29566704  0.72308092    -0.53500
C1569       C  0.71619853  0.35087493  0.02685248     0.05400
C1570       C  0.74636783  0.34470264  0.05483321     0.05400
C1571       C  0.77285934  0.32100238  0.03112150    -0.15200
C1572       C  0.77094599  0.64065062  0.47975713     0.05400
C1573       C  0.74107315  0.64609771  0.45274339     0.05400
C1574       C  0.71461283  0.66797662  0.47622490    -0.15200
H1575       H  0.69254340  0.67592620  0.45256394     0.07400
H1576       H  0.79622796  0.31705173  0.05140221     0.07400
C1577       C  0.78009566  0.51822742  0.47624623     0.05400
C1578       C  0.74986192  0.52068188  0.44863129     0.05400
C1579       C  0.72412080  0.49904574  0.97256841    -0.15200
C1580       C  0.72707647  0.47620886  0.02354389     0.05400
C1581       C  0.75752504  0.47223263  0.05013232     0.05400
C1582       C  0.78290162  0.49407426  0.02661615    -0.15200
H1583       H  0.80492668  0.49485164  0.04992768     0.07400
H1584       H  0.70077390  0.50261740  0.95228483     0.07400
N1585       N  0.53594363  0.38027903  0.37857488    -0.00400
C1586       C  0.53733975  0.36516640  0.32891514     0.02200
C1587       C  0.51292133  0.66801205  0.31750998    -0.20700
C1588       C  0.49619863  0.66282297  0.36046600    -0.20900
C1589       C  0.51103377  0.35652174  0.39729438     0.02100
H1590       H  0.51154373  0.64317266  0.28569745     0.15900
H1591       H  0.47853387  0.63564895  0.36682191     0.15900
N1592       N  0.55802752  0.40817791  0.40767412    -0.00400
C1593       C  0.59006219  0.40594752  0.39980743     0.02200
C1594       C  0.60657405  0.41669129  0.44445250    -0.20700
C1595       C  0.58446321  0.43084781  0.47906798    -0.20900
C1596       C  0.55430943  0.42711650  0.45609800     0.02100
H1597       H  0.63159170  0.42383862  0.44813303     0.15900
H1598       H  0.59023095  0.44888729  0.51450512     0.15900
N1599       N  0.71537009  0.62041434  0.37177025    -0.00400
C1600       C  0.70323328  0.65346137  0.33162091     0.02200
C1601       C  0.71930092  0.36387483  0.32884543    -0.20700
C1602       C  0.74087852  0.35990130  0.36977637    -0.20900
C1603       C  0.73757843  0.64689097  0.39635792     0.02100
H1604       H  0.71331919  0.39784262  0.30344640     0.15900
H1605       H  0.75329528  0.39149236  0.38361351     0.15900
N1606       N  0.71867464  0.56543666  0.37059316    -0.00400
C1607       C  0.71238016  0.54299119  0.32550852     0.02200
C1608       C  0.73727390  0.50734741  0.31576066    -0.20700
C1609       C  0.75818716  0.50365779  0.35799842    -0.20900
C1610       C  0.74545426  0.53704697  0.39262500     0.02100
H1611       H  0.73707595  0.47962834  0.28615179     0.15900
H1612       H  0.77720671  0.47321456  0.36630813     0.15900
N1613       N  0.55441787  0.56295235  0.10233368    -0.00400
C1614       C  0.58573602  0.56349922  0.11709698     0.02200
C1615       C  0.60325454  0.23639131  0.07440078    -0.20700
C1616       C  0.58201204  0.24558742  0.03288273    -0.20900
C1617       C  0.55145559  0.57923926  0.05104062     0.02100
H1618       H  0.62746252  0.24681829  0.07406547     0.15900
H1619       H  0.58896742  0.26077584  0.99612407     0.15900
N1620       N  0.53342960  0.53208182  0.12947759    -0.00400
C1621       C  0.53654083  0.51405646  0.18019199     0.02200
C1622       C  0.51286614  0.48156811  0.18960450    -0.20700
C1623       C  0.49493647  0.47902016  0.14442034    -0.20900
C1624       C  0.50844072  0.50920209  0.10799975     0.02100
H1625       H  0.51186731  0.45578485  0.22327190     0.15900
H1626       H  0.47699233  0.45246682  0.13728694     0.15900
O1627       O  0.67538354  0.44310286  0.21833721    -0.54700
C1628       C  0.60257287  0.42761644  0.35234891     0.77900
O1629       O  0.66580915  0.54717859  0.26736925    -0.55900
C1630       C  0.66314798  0.46662926  0.17704757     0.77900
C1631       C  0.56695957  0.50555595  0.21183469     0.80300
Cd1632     Cd  0.62792389  0.47992227  0.26712591     1.37500
O1633       O  0.62429022  0.40390421  0.32747388    -0.54700
O1634       O  0.58616109  0.46720205  0.20382930    -0.53500
C1635       C  0.68012530  0.53013185  0.30961971     0.80200
O1636       O  0.57539703  0.53449377  0.24745624    -0.55900
O1637       O  0.59290180  0.47325718  0.33657366    -0.54300
O1638       O  0.63455258  0.48503248  0.17767203    -0.54300
O1639       O  0.66689666  0.49671030  0.33564300    -0.53500
N1640       N  0.67763291  0.39809564  0.08636122    -0.00400
C1641       C  0.64635247  0.39132142  0.09548548     0.02200
C1642       C  0.63317828  0.69522028  0.05912124    -0.20700
C1643       C  0.65739543  0.67754397  0.03059550    -0.20900
C1644       C  0.68460311  0.36652360  0.04750109     0.02100
H1645       H  0.61009398  0.67968594  0.05979018     0.15900
H1646       H  0.65552485  0.64809554  0.00299656     0.15900
N1647       N  0.69075263  0.44615456  0.09381946    -0.00400
C1648       C  0.68045688  0.47830747  0.13088074     0.02200
C1649       C  0.67903243  0.52898919  0.11341060    -0.20700
C1650       C  0.68837091  0.52977175  0.06434427    -0.20900
C1651       C  0.69766978  0.47946385  0.05362478     0.02100
H1652       H  0.67206110  0.56244088  0.13455081     0.15900
H1653       H  0.69316021  0.56436861  0.04230161     0.15900
O1654       O  0.60708099  0.38567371  0.15831259    -0.54700
C1655       C  0.56583732  0.35642364  0.29966183     0.77900
O1656       O  0.62296748  0.58298928  0.18504013    -0.55900
C1657       C  0.63607248  0.37830668  0.14683809     0.77900
C1658       C  0.67299140  0.65228796  0.30082635     0.80300
Cd1659     Cd  0.61562876  0.65976333  0.23437077     1.37500
O1660       O  0.57251163  0.38738402  0.26331278    -0.54700
O1661       O  0.66845973  0.34643556  0.25939107    -0.53500
C1662       C  0.59526588  0.58989331  0.16311298     0.80200
O1663       O  0.64969689  0.62804191  0.31471146    -0.55900
O1664       O  0.58293664  0.64728659  0.30640990    -0.54300
O1665       O  0.65562024  0.68733357  0.17975757    -0.54300
O1666       O  0.57589866  0.28955465  0.18135116    -0.53500
C1667       C  0.52524748  0.45640937  0.47801484     0.05400
C1668       C  0.99884797  0.48069535  0.44793298     0.05400
C1669       C  0.97617549  0.51571796  0.46960536    -0.15200
C1670       C  0.97746917  0.52659347  0.02260719     0.05400
C1671       C  0.50364988  0.50151420  0.05283478     0.05400
C1672       C  0.52631257  0.46664759  0.03103739    -0.15200
H1673       H  0.54538369  0.44756963  0.05652521     0.07400
H1674       H  0.95732039  0.53481307  0.44385124     0.07400
C1675       C  0.98044231  0.36485871  0.47616237     0.05400
C1676       C  0.50694987  0.34366067  0.45110739     0.05400
C1677       C  0.52769317  0.63614879  0.97437424    -0.15200
C1678       C  0.52459212  0.61629351  0.02516656     0.05400
C1679       C  0.99812000  0.63787050  0.05073118     0.05400
C1680       C  0.97758494  0.67909548  0.02732937    -0.15200
H1681       H  0.95917669  0.69642283  0.55024181     0.07400
H1682       H  0.54608415  0.61924587  0.95121197     0.07400
N1683       N  0.94986190  0.41587504  0.39733172    -0.00400
C1684       C  0.91887097  0.41209399  0.38170915     0.02200
C1685       C  0.90182735  0.73385362  0.42372607    -0.20700
C1686       C  0.92241005  0.72772136  0.46588168    -0.20900
C1687       C  0.95279256  0.39925067  0.44888374     0.02100
H1688       H  0.87823490  0.72193499  0.42333298     0.15900
H1689       H  0.91581693  0.71100516  0.50225396     0.15900
N1690       N  0.97010753  0.44887360  0.37090840    -0.00400
C1691       C  0.96752877  0.46664812  0.32007898     0.02200
C1692       C  0.99145379  0.49875977  0.31097238    -0.18300
C1693       C  0.00858664  0.50229071  0.35665202    -0.20900
C1694       C  0.99452467  0.47270056  0.39285982     0.02100
H1695       H  0.99276942  0.52435305  0.27727052     0.15900
H1696       H  0.02637335  0.52904999  0.36405414     0.15900
N1697       N  0.96754709  0.60322039  0.12286769    -0.00400
C1698       C  0.96469538  0.62125058  0.17134533     0.02200
C1699       C  0.98923155  0.31810193  0.18287221    -0.20700
C1700       C  0.00752670  0.32001164  0.14131389    -0.20900
C1701       C  0.99345216  0.62502156  0.10473343     0.02100
H1702       H  0.98986688  0.34477762  0.21324816     0.15900
H1703       H  0.02554076  0.34661532  0.13497800     0.15900
N1704       N  0.94583822  0.57442308  0.09396433    -0.00400
C1705       C  0.91384364  0.57665892  0.10183403     0.02200
C1706       C  0.89692020  0.57032406  0.05628568    -0.20700
C1707       C  0.91883940  0.55874793  0.02049139    -0.20900
C1708       C  0.94919650  0.55839010  0.04438948     0.02100
H1709       H  0.87166221  0.56505224  0.05181392     0.15900
H1710       H  0.91264166  0.54462921  0.98334917     0.15900
N1711       N  0.77995958  0.37141879  0.12763085    -0.00400
C1712       C  0.79330260  0.33459344  0.16328843     0.02200
C1713       C  0.77170661  0.63263465  0.17447961    -0.20700
C1714       C  0.74507036  0.64569332  0.14237645    -0.20900
C1715       C  0.75177637  0.35347288  0.11026624     0.02100
H1716       H  0.77550640  0.59958647  0.20150751     0.15900
H1717       H  0.72543696  0.62198958  0.13665917     0.15900
N1718       N  0.78321353  0.42517095  0.13171192    -0.00400
C1719       C  0.78971324  0.44437375  0.17885765     0.02200
C1720       C  0.76817044  0.48594173  0.18622789    -0.20700
C1721       C  0.75267192  0.49913360  0.13976140    -0.20900
C1722       C  0.76153313  0.46140520  0.10699569     0.02100
H1723       H  0.76990548  0.51214920  0.21703268     0.15900
H1724       H  0.74026083  0.53622561  0.12912776     0.15900
N1725       N  0.81063020  0.61946981  0.41156674    -0.00400
C1726       C  0.82619592  0.65435357  0.38344599     0.02200
C1727       C  0.82230409  0.36936787  0.40188067    -0.20700
C1728       C  0.80711771  0.36479862  0.44600709    -0.20900
C1729       C  0.79932670  0.64778906  0.45092479     0.02100
H1730       H  0.82946994  0.40485841  0.38437596     0.15900
H1731       H  0.79854416  0.39669111  0.46826088     0.15900
N1732       N  0.81323596  0.56436216  0.40920140    -0.00400
C1733       C  0.84055932  0.54137460  0.39067781     0.02200
C1734       C  0.85844890  0.51249525  0.42901707    -0.20700
C1735       C  0.83923508  0.50633170  0.46837161    -0.20900
C1736       C  0.81044328  0.53448848  0.45382632     0.02100
H1737       H  0.88174313  0.49286002  0.42599210     0.15900
H1738       H  0.84468328  0.47811788  0.50018628     0.15900
O1739       O  0.91887719  0.51691599  0.29821406    -0.54700
C1740       C  0.82219645  0.45596475  0.19537799     0.77900
O1741       O  0.87281976  0.50316527  0.32898799    -0.55900
C1742       C  0.93716900  0.47767741  0.28905788     0.77900
C1743       C  0.90103425  0.55496592  0.14925707     0.80300
Cd1744     Cd  0.87523898  0.50521287  0.23760895     1.37500
O1745       O  0.83636074  0.43803495  0.23744400    -0.54700
O1746       O  0.91190650  0.51085897  0.16796640    -0.53500
C1747       C  0.84824123  0.53228733  0.33606727     0.80200
O1748       O  0.87825911  0.57797438  0.17217675    -0.55900
O1749       O  0.83543455  0.49016982  0.17053241    -0.54300
O1750       O  0.92800279  0.45017184  0.25272573    -0.54300
O1751       O  0.83361288  0.55313850  0.29521546    -0.53500
O1752       O  0.83487167  0.67821915  0.29852491    -0.54700
C1753       C  0.93514663  0.63236680  0.19807604     0.77900
O1754       O  0.84684720  0.36175654  0.17776962    -0.55900
C1755       C  0.84401261  0.64872416  0.33746803     0.77900
C1756       C  0.90921171  0.38925559  0.33345600     0.80300
Cd1757     Cd  0.88230080  0.66444350  0.25569884     1.37500
O1758       O  0.91884285  0.67555027  0.18887504    -0.54700
O1759       O  0.88540913  0.74160838  0.30440804    -0.53500
C1760       C  0.82601316  0.33075208  0.18823073     0.80200
O1761       O  0.92296607  0.34690568  0.32144107    -0.55900
O1762       O  0.92652983  0.26904736  0.23404073    -0.54300
O1763       O  0.87105320  0.28899259  0.33690978    -0.54300
O1764       O  0.83418534  0.62899901  0.22311586    -0.53500
C1765       C  0.71620195  0.35087520  0.52684249     0.05400
C1766       C  0.74637154  0.34470178  0.55482188     0.05400
C1767       C  0.77286235  0.32099965  0.53111076    -0.15200
C1768       C  0.77094216  0.64063910  0.97975422     0.05400
C1769       C  0.74107007  0.64609966  0.95273829     0.05400
C1770       C  0.71461244  0.66799530  0.97621507    -0.15200
H1771       H  0.69254359  0.67595486  0.95255105     0.07400
H1772       H  0.79623200  0.31704750  0.55139208     0.07400
C1773       C  0.78009523  0.51821719  0.97624848     0.05400
C1774       C  0.74986064  0.52067725  0.94863658     0.05400
C1775       C  0.72412324  0.49904436  0.47256142    -0.15200
C1776       C  0.72707878  0.47620518  0.52353633     0.05400
C1777       C  0.75752692  0.47223141  0.55012566     0.05400
C1778       C  0.78290195  0.49408231  0.52661363    -0.15200
H1779       H  0.80492366  0.49486454  0.54992732     0.07400
H1780       H  0.70077555  0.50261339  0.45227593     0.07400
N1781       N  0.53593662  0.38029663  0.87856461    -0.00400
C1782       C  0.53733128  0.36518669  0.82890384     0.02200
C1783       C  0.51292096  0.66802817  0.81751039    -0.20700
C1784       C  0.49620083  0.66283082  0.86046797    -0.20900
C1785       C  0.51103059  0.35653334  0.89728773     0.02100
H1786       H  0.51154211  0.64319240  0.78569361     0.15900
H1787       H  0.47853650  0.63565674  0.86682155     0.15900
N1788       N  0.55802011  0.40819647  0.90766253    -0.00400
C1789       C  0.59005520  0.40595762  0.89980018     0.02200
C1790       C  0.60656670  0.41669417  0.94444794    -0.20700
C1791       C  0.58445555  0.43085454  0.97906060    -0.20900
C1792       C  0.55430191  0.42713339  0.95608697     0.02100
H1793       H  0.63158603  0.42383443  0.94813115     0.15900
H1794       H  0.59022481  0.44889306  0.01450510     0.15900
N1795       N  0.71536588  0.62040488  0.87177291    -0.00400
C1796       C  0.70323100  0.65344826  0.83161930     0.02200
C1797       C  0.71929812  0.36387780  0.82885263    -0.20700
C1798       C  0.74087773  0.35990182  0.86978174    -0.20900
C1799       C  0.73757664  0.64688165  0.89635399     0.02100
H1800       H  0.71331774  0.39784747  0.80345167     0.15900
H1801       H  0.75329590  0.39148775  0.88361564     0.15900
N1802       N  0.71867310  0.56542700  0.87059693    -0.00400
C1803       C  0.71238378  0.54298133  0.82551148     0.02200
C1804       C  0.73728228  0.50734507  0.81576386    -0.20700
C1805       C  0.75819276  0.50365864  0.85800475    -0.20900
C1806       C  0.74545366  0.53704155  0.89263094     0.02100
H1807       H  0.73708849  0.47962968  0.78615837     0.15900
H1808       H  0.77721538  0.47321642  0.86631622     0.15900
N1809       N  0.55442085  0.56295708  0.60233060    -0.00400
C1810       C  0.58573884  0.56350726  0.61709090     0.02200
C1811       C  0.60324216  0.23636942  0.57441299    -0.20700
C1812       C  0.58200193  0.24555685  0.53289236    -0.20900
C1813       C  0.55145655  0.57923893  0.55103633     0.02100
H1814       H  0.62745206  0.24679585  0.57407667     0.15900
H1815       H  0.58895977  0.26073727  0.49612676     0.15900
N1816       N  0.53343509  0.53208654  0.62947999    -0.00400
C1817       C  0.53654820  0.51406566  0.68019590     0.02200
C1818       C  0.51287507  0.48157577  0.68961266    -0.20700
C1819       C  0.49494487  0.47902186  0.64443036    -0.20900
C1820       C  0.50844754  0.50920108  0.60800599     0.02100
H1821       H  0.51187905  0.45579233  0.72328034     0.15900
H1822       H  0.47700262  0.45246541  0.63730076     0.15900
O1823       O  0.67538472  0.44309135  0.71832608    -0.54700
C1824       C  0.60256960  0.42762319  0.85234388     0.77900
O1825       O  0.66580588  0.54717620  0.76738681    -0.55900
C1826       C  0.66314914  0.46662621  0.67704079     0.77900
C1827       C  0.56696824  0.50556181  0.71183481     0.80300
Cd1828     Cd  0.62792970  0.47991392  0.76712408     1.37500
O1829       O  0.62428196  0.40390147  0.82746665    -0.54700
O1830       O  0.58616705  0.46720508  0.70382701    -0.53500
C1831       C  0.68013209  0.53010951  0.80962307     0.80200
O1832       O  0.57540806  0.53449658  0.74745775    -0.55900
O1833       O  0.59290719  0.47326878  0.83657266    -0.54300
O1834       O  0.63455593  0.48503801  0.67767156    -0.54300
O1835       O  0.66691694  0.49665997  0.83563079    -0.53500
N1836       N  0.67763635  0.39808939  0.58635581    -0.00400
C1837       C  0.64635634  0.39131037  0.59548190     0.02200
C1838       C  0.63317758  0.69520836  0.55912606    -0.20700
C1839       C  0.65739584  0.67752656  0.53060520    -0.20900
C1840       C  0.68460718  0.36651841  0.54749542     0.02100
H1841       H  0.61009503  0.67967997  0.55979379     0.15900
H1842       H  0.65552461  0.64807377  0.50300611     0.15900
N1843       N  0.69075392  0.44615051  0.59381281    -0.00400
C1844       C  0.68045629  0.47830380  0.63087185     0.02200
C1845       C  0.67903245  0.52898601  0.61340209    -0.20700
C1846       C  0.68837348  0.52976766  0.56433696    -0.20900
C1847       C  0.69767208  0.47945972  0.55361778     0.02100
H1848       H  0.67206222  0.56243350  0.63453939     0.15900
H1849       H  0.69316398  0.56436560  0.54229488     0.15900
O1850       O  0.60708319  0.38567379  0.65830805    -0.54700
C1851       C  0.56582959  0.35643950  0.79965354     0.77900
O1852       O  0.62297124  0.58300039  0.68503099    -0.55900
C1853       C  0.63607463  0.37829990  0.64683489     0.77900
C1854       C  0.67298735  0.65227945  0.80082850     0.80300
Cd1855     Cd  0.61562596  0.65976661  0.73437208     1.37500
O1856       O  0.57250152  0.38738969  0.76329419    -0.54700
O1857       O  0.66845329  0.34644339  0.75939993    -0.53500
C1858       C  0.59526855  0.58989960  0.66310772     0.80200
O1859       O  0.64969280  0.62803263  0.81471249    -0.55900
O1860       O  0.58293340  0.64729698  0.80640907    -0.54300
O1861       O  0.65561788  0.68734089  0.67976657    -0.54300
O1862       O  0.57588582  0.28954297  0.68136879    -0.53500
C1863       C  0.52523982  0.45642666  0.97800296     0.05400
C1864       C  0.99884430  0.48069638  0.94792685     0.05400
C1865       C  0.97617027  0.51571407  0.96960212    -0.15200
C1866       C  0.97747388  0.52659934  0.52260979     0.05400
C1867       C  0.50365759  0.50150474  0.55284291     0.05400
C1868       C  0.52632001  0.46663495  0.53104839    -0.15200
H1869       H  0.54539336  0.44755709  0.55654000     0.07400
H1870       H  0.95731128  0.53480748  0.94384887     0.07400
C1871       C  0.98044560  0.36485950  0.97615763     0.05400
C1872       C  0.50694987  0.34367270  0.95110201     0.05400
C1873       C  0.52769151  0.63614707  0.47436989    -0.15200
C1874       C  0.52459274  0.61629297  0.52516240     0.05400
C1875       C  0.99812517  0.63788177  0.55073239     0.05400
C1876       C  0.97759206  0.67910831  0.52732931    -0.15200
H1877       H  0.95916591  0.69640413  0.05024400     0.07400
H1878       H  0.54608498  0.61923998  0.45120266     0.07400
N1879       N  0.94986051  0.41587251  0.89732688    -0.00400
C1880       C  0.91887052  0.41208371  0.88170439     0.02200
C1881       C  0.90182118  0.73387881  0.92373538    -0.20700
C1882       C  0.92240580  0.72773777  0.96588842    -0.20900
C1883       C  0.95279297  0.39924440  0.94887849     0.02100
H1884       H  0.87822288  0.72197807  0.92334737     0.15900
H1885       H  0.91581089  0.71103043  0.00226318     0.15900
N1886       N  0.97010505  0.44887185  0.87090182    -0.00400
C1887       C  0.96752818  0.46664042  0.82007009     0.02200
C1888       C  0.99145387  0.49875105  0.81096331    -0.18300
C1889       C  0.00858474  0.50228696  0.85664409    -0.20900
C1890       C  0.99452094  0.47270113  0.89285316     0.02100
H1891       H  0.99277025  0.52434209  0.77726114     0.15900
H1892       H  0.02637128  0.52904644  0.86404504     0.15900
N1893       N  0.96755196  0.60323504  0.62286883    -0.00400
C1894       C  0.96469634  0.62127228  0.67134315     0.02200
C1895       C  0.98922863  0.31811676  0.68286571    -0.20700
C1896       C  0.00752601  0.32001432  0.64130936    -0.20900
C1897       C  0.99345684  0.62503690  0.60473505     0.02100
H1898       H  0.98986463  0.34479967  0.71323791     0.15900
H1899       H  0.02553888  0.34661248  0.63496916     0.15900
N1900       N  0.94584391  0.57443733  0.59396333    -0.00400
C1901       C  0.91384859  0.57668277  0.60182651     0.02200
C1902       C  0.89692674  0.57035984  0.55627341    -0.20700
C1903       C  0.91884761  0.55877883  0.52048299    -0.20900
C1904       C  0.94920366  0.55840662  0.54438789     0.02100
H1905       H  0.87166925  0.56509811  0.55179571     0.15900
H1906       H  0.91264965  0.54466650  0.48333693     0.15900
N1907       N  0.77996176  0.37141133  0.62762191    -0.00400
C1908       C  0.79330596  0.33458279  0.66327569     0.02200
C1909       C  0.77170748  0.63263493  0.67448655    -0.20700
C1910       C  0.74507107  0.64569059  0.64238221    -0.20900
C1911       C  0.75177951  0.35346532  0.61025492     0.02100
H1912       H  0.77550868  0.59958779  0.70150994     0.15900
H1913       H  0.72544125  0.62198381  0.63666345     0.15900
N1914       N  0.78321641  0.42516336  0.63170234    -0.00400
C1915       C  0.78971654  0.44436470  0.67884827     0.02200
C1916       C  0.76817157  0.48592908  0.68622299    -0.20700
C1917       C  0.75267224  0.49912183  0.63975791    -0.20900
C1918       C  0.76153464  0.46139811  0.60698865     0.02100
H1919       H  0.76990730  0.51213465  0.71702623     0.15900
H1920       H  0.74025879  0.53622022  0.62912576     0.15900
N1921       N  0.81062792  0.61945239  0.91156473    -0.00400
C1922       C  0.82619419  0.65433559  0.88344502     0.02200
C1923       C  0.82230303  0.36937742  0.90189431    -0.20700
C1924       C  0.80711612  0.36480513  0.94602047    -0.20900
C1925       C  0.79932532  0.64777096  0.95092440     0.02100
H1926       H  0.82946897  0.40486638  0.88439434     0.15900
H1927       H  0.79854240  0.39669644  0.96827594     0.15900
N1928       N  0.81323570  0.56434437  0.90919909    -0.00400
C1929       C  0.84055713  0.54135568  0.89066922     0.02200
C1930       C  0.85844442  0.51246365  0.92900222    -0.20700
C1931       C  0.83923188  0.50629902  0.96835793    -0.20900
C1932       C  0.81044300  0.53446787  0.95382218     0.02100
H1933       H  0.88173795  0.49282547  0.92597266     0.15900
H1934       H  0.84467840  0.47807903  0.00017054     0.15900
O1935       O  0.91887787  0.51691098  0.79820248    -0.54700
C1936       C  0.82219930  0.45596159  0.69536527     0.77900
O1937       O  0.87283120  0.50318955  0.82897185    -0.55900
C1938       C  0.93716933  0.47767232  0.78904577     0.77900
C1939       C  0.90103498  0.55498396  0.64924313     0.80300
Cd1940     Cd  0.87523999  0.50522043  0.73759138     1.37500
O1941       O  0.83636281  0.43804187  0.73743513    -0.54700
O1942       O  0.91190720  0.51087608  0.66794943    -0.53500
C1943       C  0.84824231  0.53228585  0.83605567     0.80200
O1944       O  0.87825854  0.57798895  0.67216247    -0.55900
O1945       O  0.83543762  0.49016159  0.67051264    -0.54300
O1946       O  0.92800401  0.45017141  0.75270887    -0.54300
O1947       O  0.83360486  0.55312419  0.79520560    -0.53500
O1948       O  0.83486367  0.67819676  0.79852060    -0.54700
C1949       C  0.93514648  0.63238155  0.69807487     0.77900
O1950       O  0.84684707  0.36175244  0.67776636    -0.55900
C1951       C  0.84400942  0.64870793  0.83746574     0.77900
C1952       C  0.90921243  0.38925141  0.83344886     0.80300
Cd1953     Cd  0.88229867  0.66444785  0.75570151     1.37500
O1954       O  0.91884314  0.67556674  0.68888289    -0.54700
O1955       O  0.88539497  0.74160905  0.80442424    -0.53500
C1956       C  0.82601332  0.33074778  0.68822673     0.80200
O1957       O  0.92295805  0.34689093  0.82144451    -0.55900
O1958       O  0.92652992  0.26905995  0.73404237    -0.54300
O1959       O  0.87104902  0.28899948  0.83691200    -0.54300
O1960       O  0.83418815  0.62899737  0.72311155    -0.53500
C1961       C  0.71619898  0.68419475  0.02685155     0.05400
C1962       C  0.74636420  0.67801574  0.05484717     0.05400
C1963       C  0.77286204  0.65432418  0.03114633    -0.15200
C1964       C  0.77092013  0.97407558  0.47970886     0.05400
C1965       C  0.74103426  0.97948088  0.45274083     0.05400
C1966       C  0.71457934  0.00132722  0.47625647    -0.15200
H1967       H  0.69249700  0.00925475  0.45262313     0.07400
H1968       H  0.79622567  0.65037054  0.05143747     0.07400
C1969       C  0.78004917  0.85162711  0.47626493     0.05400
C1970       C  0.74981946  0.85407596  0.44864245     0.05400
C1971       C  0.72408921  0.83242177  0.97254843    -0.15200
C1972       C  0.72704509  0.80956080  0.02351493     0.05400
C1973       C  0.75749124  0.80558150  0.05011527     0.05400
C1974       C  0.78286063  0.82746982  0.02662197    -0.15200
H1975       H  0.80487959  0.82825315  0.04994124     0.07400
H1976       H  0.70074500  0.83598385  0.95225575     0.07400
N1977       N  0.53593643  0.71365653  0.37851689    -0.00400
C1978       C  0.53733928  0.69851601  0.32886492     0.02200
C1979       C  0.51290034  0.00122249  0.31758042    -0.20700
C1980       C  0.49616836  0.99606611  0.36052769    -0.20900
C1981       C  0.51103210  0.68989691  0.39724803     0.02100
H1982       H  0.51153131  0.97635851  0.28577985     0.15900
H1983       H  0.47850971  0.96889147  0.36689892     0.15900
N1984       N  0.55802355  0.74154901  0.40761587    -0.00400
C1985       C  0.59005955  0.73927531  0.39975528     0.02200
C1986       C  0.60657635  0.74998462  0.44440641    -0.20700
C1987       C  0.58446955  0.76417064  0.47901913    -0.20900
C1988       C  0.55431140  0.76048667  0.45604530     0.02100
H1989       H  0.63160119  0.75709483  0.44809291     0.15900
H1990       H  0.59024723  0.78219188  0.51446549     0.15900
N1991       N  0.71532039  0.95380787  0.37177465    -0.00400
C1992       C  0.70316103  0.98686417  0.33164605     0.02200
C1993       C  0.71935888  0.69718364  0.32884563    -0.20700
C1994       C  0.74093051  0.69320199  0.36978835    -0.20900
C1995       C  0.73751747  0.98030510  0.39636112     0.02100
H1996       H  0.71338979  0.73115002  0.30343601     0.15900
H1997       H  0.75335193  0.72478517  0.38362500     0.15900
N1998       N  0.71864206  0.89883007  0.37059067    -0.00400
C1999       C  0.71236469  0.87638357  0.32550172     0.02200
C2000       C  0.73726137  0.84073881  0.31577266    -0.20700
C2001       C  0.75816258  0.83705308  0.35802335    -0.20900
C2002       C  0.74541987  0.87044654  0.39263804     0.02100
H2003       H  0.73707072  0.81301506  0.28617031     0.15900
H2004       H  0.77717860  0.80660901  0.36634845     0.15900
N2005       N  0.55439310  0.89630018  0.10235298    -0.00400
C2006       C  0.58571078  0.89688293  0.11710440     0.02200
C2007       C  0.60327715  0.56966902  0.07437566    -0.20700
C2008       C  0.58203569  0.57891253  0.03285790    -0.20900
C2009       C  0.55141666  0.91259852  0.05106563     0.02100
H2010       H  0.62749368  0.58006238  0.07404826     0.15900
H2011       H  0.58899556  0.59410427  0.99610582     0.15900
N2012       N  0.53341750  0.86541643  0.12950563    -0.00400
C2013       C  0.53653392  0.84741280  0.18022538     0.02200
C2014       C  0.51286550  0.81491768  0.18965665    -0.20700
C2015       C  0.49494383  0.81232741  0.14446859    -0.20900
C2016       C  0.50843983  0.84250581  0.10803419     0.02100
H2017       H  0.51186645  0.78916293  0.22334326     0.15900
H2018       H  0.47700466  0.78576052  0.13734949     0.15900
O2019       O  0.67538046  0.77646627  0.21829992    -0.54700
C2020       C  0.60257909  0.76094276  0.35230396     0.77900
O2021       O  0.66584311  0.88049289  0.26728061    -0.55900
C2022       C  0.66312946  0.79998694  0.17701537     0.77900
C2023       C  0.56695990  0.83891353  0.21184575     0.80300
Cd2024     Cd  0.62793017  0.81327813  0.26710440     1.37500
O2025       O  0.62431579  0.73724664  0.32745210    -0.54700
O2026       O  0.58617405  0.80059146  0.20378744    -0.53500
C2027       C  0.68011752  0.86352230  0.30958618     0.80200
O2028       O  0.57539305  0.86782481  0.24749347    -0.55900
O2029       O  0.59288992  0.80656931  0.33650898    -0.54300
O2030       O  0.63453318  0.81838321  0.17765666    -0.54300
O2031       O  0.66684877  0.83018520  0.33565722    -0.53500
N2032       N  0.67763350  0.73141877  0.08635949    -0.00400
C2033       C  0.64635714  0.72463108  0.09549649     0.02200
C2034       C  0.63317758  0.02851813  0.05919465    -0.20700
C2035       C  0.65740136  0.01079375  0.03071053    -0.20900
C2036       C  0.68459957  0.69986103  0.04748546     0.02100
H2037       H  0.61008943  0.01299390  0.05986828     0.15900
H2038       H  0.65553623  0.98131645  0.00314103     0.15900
N2039       N  0.69073281  0.77949695  0.09379213    -0.00400
C2040       C  0.68041949  0.81166333  0.13082970     0.02200
C2041       C  0.67896579  0.86233711  0.11332529    -0.20700
C2042       C  0.68830415  0.86310168  0.06426053    -0.20900
C2043       C  0.69763345  0.81279415  0.05357871     0.02100
H2044       H  0.67198737  0.89579623  0.13445070     0.15900
H2045       H  0.69307934  0.89769503  0.04219860     0.15900
O2046       O  0.60709978  0.71896496  0.15834320    -0.54700
C2047       C  0.56584551  0.68973384  0.29962806     0.77900
O2048       O  0.62294615  0.91637650  0.18503302    -0.55900
C2049       C  0.63608953  0.71161189  0.14685570     0.77900
C2050       C  0.67292084  0.98567440  0.30085653     0.80300
Cd2051     Cd  0.61558265  0.99311979  0.23439466     1.37500
O2052       O  0.57255430  0.72069451  0.26330285    -0.54700
O2053       O  0.66851324  0.67972428  0.25936511    -0.53500
C2054       C  0.59523679  0.92325836  0.16313094     0.80200
O2055       O  0.64966201  0.96130925  0.31467841    -0.55900
O2056       O  0.58289825  0.98056962  0.30640790    -0.54300
O2057       O  0.65559536  0.02068140  0.17980159    -0.54300
O2058       O  0.57593779  0.62287148  0.18130216    -0.53500
C2059       C  0.52525421  0.78978199  0.47799076     0.05400
C2060       C  0.99886303  0.81400821  0.44792153     0.05400
C2061       C  0.97619701  0.84905317  0.46957332    -0.15200
C2062       C  0.97748088  0.85994871  0.02257852     0.05400
C2063       C  0.50364706  0.83481905  0.05286538     0.05400
C2064       C  0.52632620  0.79999534  0.03103864    -0.15200
H2065       H  0.54541498  0.78092621  0.05652138     0.07400
H2066       H  0.95734926  0.86816371  0.44380460     0.07400
C2067       C  0.98043296  0.69819681  0.47617108     0.05400
C2068       C  0.50696319  0.67702877  0.45106574     0.05400
C2069       C  0.52761528  0.96940914  0.97439279    -0.15200
C2070       C  0.52452927  0.94959775  0.02519748     0.05400
C2071       C  0.99816045  0.97119678  0.05070387     0.05400
C2072       C  0.97762057  0.01241019  0.02730271    -0.15200
H2073       H  0.95919167  0.02970034  0.55022064     0.07400
H2074       H  0.54598471  0.95245685  0.95121801     0.07400
N2075       N  0.94985957  0.74921904  0.39733813    -0.00400
C2076       C  0.91887076  0.74543693  0.38171315     0.02200
C2077       C  0.90180423  0.06716272  0.42376243    -0.20700
C2078       C  0.92240731  0.06097711  0.46589527    -0.20900
C2079       C  0.95278974  0.73260241  0.44889275     0.02100
H2080       H  0.87820693  0.05528581  0.42338793     0.15900
H2081       H  0.91582280  0.04425023  0.50227023     0.15900
N2082       N  0.97010589  0.78220736  0.37090675    -0.00400
C2083       C  0.96751513  0.79999871  0.32008177     0.02200
C2084       C  0.99145810  0.83207278  0.31096560    -0.18300
C2085       C  0.00861407  0.83556027  0.35663289    -0.20900
C2086       C  0.99454310  0.80599410  0.39284914     0.02100
H2087       H  0.99277302  0.85767954  0.27727331     0.15900
H2088       H  0.02641707  0.86229709  0.36402848     0.15900
N2089       N  0.96757267  0.93657947  0.12283248    -0.00400
C2090       C  0.96471428  0.95463300  0.17129977     0.02200
C2091       C  0.98922949  0.65140536  0.18288830    -0.20700
C2092       C  0.00750795  0.65334288  0.14131303    -0.20900
C2093       C  0.99348688  0.95835944  0.10470438     0.02100
H2094       H  0.98986345  0.67808312  0.21326327     0.15900
H2095       H  0.02550802  0.67996842  0.13496328     0.15900
N2096       N  0.94586039  0.90779298  0.09392243    -0.00400
C2097       C  0.91386512  0.91003947  0.10178431     0.02200
C2098       C  0.89694262  0.90373029  0.05622788    -0.20700
C2099       C  0.91886243  0.89216568  0.02042998    -0.20900
C2100       C  0.94921804  0.89177897  0.04434143     0.02100
H2101       H  0.87168523  0.89847595  0.05174739     0.15900
H2102       H  0.91266319  0.87806346  0.98328141     0.15900
N2103       N  0.77995326  0.70473259  0.12764060    -0.00400
C2104       C  0.79329602  0.66792280  0.16331902     0.02200
C2105       C  0.77173367  0.96587542  0.17441971    -0.20700
C2106       C  0.74509472  0.97894018  0.14232386    -0.20900
C2107       C  0.75177165  0.68678035  0.11028040     0.02100
H2108       H  0.77554848  0.93280150  0.20140642     0.15900
H2109       H  0.72546957  0.95522788  0.13657723     0.15900
N2110       N  0.78321016  0.75849008  0.13167304    -0.00400
C2111       C  0.78971313  0.77770476  0.17881143     0.02200
C2112       C  0.76813934  0.81921889  0.18621713    -0.20700
C2113       C  0.75261302  0.83238803  0.13977020    -0.20900
C2114       C  0.76149938  0.79469855  0.10697798     0.02100
H2115       H  0.76986417  0.84542295  0.21702645     0.15900
H2116       H  0.74017231  0.86946703  0.12915800     0.15900
N2117       N  0.81057603  0.95283520  0.41149019    -0.00400
C2118       C  0.82614491  0.98768532  0.38333411     0.02200
C2119       C  0.82232696  0.70272633  0.40195570    -0.20700
C2120       C  0.80714861  0.69813910  0.44608950    -0.20900
C2121       C  0.79928058  0.98120090  0.45082196     0.02100
H2122       H  0.82948196  0.73822251  0.38445729     0.15900
H2123       H  0.79857623  0.73002152  0.46835172     0.15900
N2124       N  0.81317773  0.89772180  0.40918292    -0.00400
C2125       C  0.84048603  0.87469517  0.39064507     0.02200
C2126       C  0.85837743  0.84582028  0.42898492    -0.20700
C2127       C  0.83918181  0.83971953  0.46837307    -0.20900
C2128       C  0.81039392  0.86789244  0.45384026     0.02100
H2129       H  0.88166725  0.82616396  0.42595314     0.15900
H2130       H  0.84463430  0.81152374  0.50020653     0.15900
O2131       O  0.91885810  0.85029360  0.29823983    -0.54700
C2132       C  0.82219134  0.78934125  0.19531696     0.77900
O2133       O  0.87276821  0.83654552  0.32894851    -0.55900
C2134       C  0.93714814  0.81105618  0.28906852     0.77900
C2135       C  0.90104370  0.88836888  0.14921013     0.80300
Cd2136     Cd  0.87521630  0.83863613  0.23757240     1.37500
O2137       O  0.83636565  0.77142793  0.23738098    -0.54700
O2138       O  0.91193116  0.84429172  0.16797769    -0.53500
C2139       C  0.84817781  0.86563961  0.33603049     0.80200
O2140       O  0.87824760  0.91137256  0.17208478    -0.55900
O2141       O  0.83541116  0.82356814  0.17047100    -0.54300
O2142       O  0.92797827  0.78357868  0.25271533    -0.54300
O2143       O  0.83354950  0.88649366  0.29517985    -0.53500
O2144       O  0.83483013  0.01141123  0.29839204    -0.54700
C2145       C  0.93516617  0.96572094  0.19804218     0.77900
O2146       O  0.84684142  0.69509005  0.17781282    -0.55900
C2147       C  0.84397943  0.98199798  0.33738742     0.77900
C2148       C  0.90921717  0.72259607  0.33346002     0.80300
Cd2149     Cd  0.88230524  0.99773445  0.25567721     1.37500
O2150       O  0.91885162  0.00889728  0.18885956    -0.54700
O2151       O  0.88537300  0.07488936  0.30443535    -0.53500
C2152       C  0.82600686  0.66408641  0.18827017     0.80200
O2153       O  0.92296704  0.68023581  0.32146371    -0.55900
O2154       O  0.92654298  0.60235498  0.23409810    -0.54300
O2155       O  0.87105476  0.62231975  0.33693687    -0.54300
O2156       O  0.83420069  0.96228085  0.22307941    -0.53500
C2157       C  0.71619916  0.68417940  0.52686048     0.05400
C2158       C  0.74636522  0.67801414  0.55485333     0.05400
C2159       C  0.77286562  0.65433556  0.53114937    -0.15200
C2160       C  0.77092328  0.97408612  0.97969646     0.05400
C2161       C  0.74103665  0.97948922  0.95273078     0.05400
C2162       C  0.71458198  0.00132991  0.97625017    -0.15200
H2163       H  0.69249624  0.00925658  0.95261692     0.07400
H2164       H  0.79623049  0.65039186  0.55143848     0.07400
C2165       C  0.78005299  0.85163690  0.97626174     0.05400
C2166       C  0.74982258  0.85409132  0.94864004     0.05400
C2167       C  0.72408730  0.83240316  0.47255033    -0.15200
C2168       C  0.72704304  0.80954730  0.52351818     0.05400
C2169       C  0.75748810  0.80557593  0.55012081     0.05400
C2170       C  0.78285703  0.82746492  0.52662712    -0.15200
H2171       H  0.80487489  0.82825253  0.54994533     0.07400
H2172       H  0.70074248  0.83596069  0.45225569     0.07400
N2173       N  0.53593816  0.71366395  0.87852240    -0.00400
C2174       C  0.53733920  0.69853104  0.82886718     0.02200
C2175       C  0.51290230  0.00119179  0.81758355    -0.20700
C2176       C  0.49616840  0.99604476  0.86052967    -0.20900
C2177       C  0.51103503  0.68990074  0.89725248     0.02100
H2178       H  0.51153379  0.97632356  0.78578653     0.15900
H2179       H  0.47850936  0.96887049  0.86690461     0.15900
N2180       N  0.55802427  0.74155741  0.90762275    -0.00400
C2181       C  0.59006026  0.73928857  0.89976271     0.02200
C2182       C  0.60657535  0.75000899  0.94441213    -0.20700
C2183       C  0.58446719  0.76419430  0.97902274    -0.20900
C2184       C  0.55431012  0.76049926  0.95605052     0.02100
H2185       H  0.63159860  0.75712515  0.94809761     0.15900
H2186       H  0.59024276  0.78222105  0.01446933     0.15900
N2187       N  0.71532643  0.95381979  0.87176051    -0.00400
C2188       C  0.70316338  0.98687640  0.83163492     0.02200
C2189       C  0.71936224  0.69716402  0.82883365    -0.20700
C2190       C  0.74093406  0.69318472  0.86977452    -0.20900
C2191       C  0.73751906  0.98032210  0.89635149     0.02100
H2192       H  0.71339604  0.73112977  0.80341538     0.15900
H2193       H  0.75336056  0.72476920  0.88360493     0.15900
N2194       N  0.71864858  0.89884155  0.87058089    -0.00400
C2195       C  0.71236991  0.87638985  0.82549530     0.02200
C2196       C  0.73726323  0.84073498  0.81577473    -0.20700
C2197       C  0.75816375  0.83705215  0.85802565    -0.20900
C2198       C  0.74542463  0.87045635  0.89263354     0.02100
H2199       H  0.73707007  0.81300587  0.78617827     0.15900
H2200       H  0.77717830  0.80660178  0.86635692     0.15900
N2201       N  0.55440405  0.89629837  0.60234286    -0.00400
C2202       C  0.58572154  0.89688160  0.61709382     0.02200
C2203       C  0.60327900  0.56967375  0.57436782    -0.20700
C2204       C  0.58203608  0.57891086  0.53285048    -0.20900
C2205       C  0.55142491  0.91260975  0.55105869     0.02100
H2206       H  0.62749431  0.58006456  0.57403719     0.15900
H2207       H  0.58899446  0.59409816  0.49609683     0.15900
N2208       N  0.53342759  0.86541621  0.62949602    -0.00400
C2209       C  0.53654372  0.84741382  0.68021622     0.02200
C2210       C  0.51287453  0.81492106  0.68964970    -0.20700
C2211       C  0.49495275  0.81232993  0.64446173    -0.20900
C2212       C  0.50844933  0.84250677  0.60802623     0.02100
H2213       H  0.51187409  0.78916976  0.72333869     0.15900
H2214       H  0.47701327  0.78576589  0.63734420     0.15900
O2215       O  0.67538657  0.77646749  0.71830982    -0.54700
C2216       C  0.60257981  0.76095005  0.85230832     0.77900
O2217       O  0.66584935  0.88049664  0.76727217    -0.55900
C2218       C  0.66313313  0.79997711  0.67702107     0.77900
C2219       C  0.56696858  0.83891647  0.71183852     0.80300
Cd2220     Cd  0.62793448  0.81328192  0.76710755     1.37500
O2221       O  0.62431827  0.73725269  0.82746089    -0.54700
O2222       O  0.58618537  0.80059823  0.70377854    -0.53500
C2223       C  0.68012157  0.86353289  0.80958150     0.80200
O2224       O  0.57539801  0.86782579  0.74749034    -0.55900
O2225       O  0.59288983  0.80657441  0.83650734    -0.54300
O2226       O  0.63453537  0.81836721  0.67765970    -0.54300
O2227       O  0.66684956  0.83020440  0.83565859    -0.53500
N2228       N  0.67763320  0.73140479  0.58636576    -0.00400
C2229       C  0.64635649  0.72462175  0.59549963     0.02200
C2230       C  0.63317047  0.02853380  0.55918720    -0.20700
C2231       C  0.65739617  0.01080214  0.53070844    -0.20900
C2232       C  0.68459993  0.69984278  0.54749497     0.02100
H2233       H  0.61008558  0.01301571  0.55985836     0.15900
H2234       H  0.65553080  0.98132500  0.50314440     0.15900
N2235       N  0.69073373  0.77948220  0.59379590    -0.00400
C2236       C  0.68042151  0.81165025  0.63083303     0.02200
C2237       C  0.67896391  0.86232291  0.61332423    -0.20700
C2238       C  0.68829861  0.86308525  0.56425719    -0.20900
C2239       C  0.69763071  0.81277747  0.55357942     0.02100
H2240       H  0.67198647  0.89578160  0.63444725     0.15900
H2241       H  0.69307029  0.89767594  0.54219352     0.15900
O2242       O  0.60709591  0.71895881  0.65834046    -0.54700
C2243       C  0.56584487  0.68974680  0.79962920     0.77900
O2244       O  0.62295355  0.91637030  0.68503026    -0.55900
C2245       C  0.63608678  0.71160923  0.64685840     0.77900
C2246       C  0.67292513  0.98567939  0.80084244     0.80300
Cd2247     Cd  0.61558460  0.99311971  0.73438539     1.37500
O2248       O  0.57255492  0.72070678  0.76330406    -0.54700
O2249       O  0.66850843  0.67972097  0.75937056    -0.53500
C2250       C  0.59524613  0.92325551  0.66312150     0.80200
O2251       O  0.64966550  0.96131889  0.81466912    -0.55900
O2252       O  0.58289714  0.98054766  0.80639017    -0.54300
O2253       O  0.65559123  0.02070603  0.67979663    -0.54300
O2254       O  0.57593771  0.62286874  0.68130457    -0.53500
C2255       C  0.52525042  0.78978652  0.97799675     0.05400
C2256       C  0.99885591  0.81401742  0.94792400     0.05400
C2257       C  0.97618972  0.84906396  0.96957567    -0.15200
C2258       C  0.97748590  0.85993433  0.52257604     0.05400
C2259       C  0.50365474  0.83482009  0.55285822     0.05400
C2260       C  0.52633239  0.79999347  0.53103209    -0.15200
H2261       H  0.54541824  0.78092514  0.55651216     0.07400
H2262       H  0.95734461  0.86817159  0.94381008     0.07400
C2263       C  0.98042800  0.69819412  0.97617473     0.05400
C2264       C  0.50696476  0.67703096  0.95106968     0.05400
C2265       C  0.52761843  0.96942104  0.47439210    -0.15200
C2266       C  0.52453371  0.94960517  0.52519562     0.05400
C2267       C  0.99815611  0.97118861  0.55070263     0.05400
C2268       C  0.97761534  0.01240289  0.52730435    -0.15200
H2269       H  0.95919689  0.02971237  0.05021783     0.07400
H2270       H  0.54598848  0.95247211  0.45121532     0.07400
N2271       N  0.94985563  0.74922118  0.89734093    -0.00400
C2272       C  0.91886509  0.74544913  0.88171970     0.02200
C2273       C  0.90181187  0.06715764  0.92375122    -0.20700
C2274       C  0.92241238  0.06097619  0.96588743    -0.20900
C2275       C  0.95278626  0.73260526  0.94889637     0.02100
H2276       H  0.87821025  0.05527451  0.92337375     0.15900
H2277       H  0.91582809  0.04425190  0.00225822     0.15900
N2278       N  0.97010159  0.78221022  0.87090969    -0.00400
C2279       C  0.96751113  0.79999956  0.82008367     0.02200
C2280       C  0.99145253  0.83207660  0.81096712    -0.18300
C2281       C  0.00860698  0.83556884  0.85663523    -0.20900
C2282       C  0.99453641  0.80600220  0.89285169     0.02100
H2283       H  0.99276715  0.85768106  0.77727398     0.15900
H2284       H  0.02640806  0.86230676  0.86403008     0.15900
N2285       N  0.96757003  0.93655597  0.62282828    -0.00400
C2286       C  0.96471470  0.95459335  0.67130202     0.02200
C2287       C  0.98922747  0.65143386  0.68288416    -0.20700
C2288       C  0.00750856  0.65336679  0.64131167    -0.20900
C2289       C  0.99348217  0.95834312  0.60470196     0.02100
H2290       H  0.98985901  0.67811482  0.71325595     0.15900
H2291       H  0.02550799  0.67999218  0.63496118     0.15900
N2292       N  0.94585871  0.90776870  0.59391698    -0.00400
C2293       C  0.91386348  0.91000571  0.60177877     0.02200
C2294       C  0.89694281  0.90368233  0.55622395    -0.20700
C2295       C  0.91886401  0.89212282  0.52042803    -0.20900
C2296       C  0.94921884  0.89175260  0.54433747     0.02100
H2297       H  0.87168608  0.89841775  0.55174517     0.15900
H2298       H  0.91266692  0.87801042  0.48327645     0.15900
N2299       N  0.77995062  0.70473619  0.62764891    -0.00400
C2300       C  0.79329477  0.66792691  0.66332626     0.02200
C2301       C  0.77173104  0.96588773  0.67443251    -0.20700
C2302       C  0.74509057  0.97895337  0.64233944    -0.20900
C2303       C  0.75177094  0.68677927  0.61028693     0.02100
H2304       H  0.77554525  0.93281704  0.70142219     0.15900
H2305       H  0.72546475  0.95524305  0.63659912     0.15900
N2306       N  0.78320277  0.75849413  0.63168534    -0.00400
C2307       C  0.78970298  0.77771052  0.67882373     0.02200
C2308       C  0.76813184  0.81923104  0.68622106    -0.20700
C2309       C  0.75260925  0.83239848  0.63977003    -0.20900
C2310       C  0.76149469  0.79470220  0.60698430     0.02100
H2311       H  0.76985622  0.84543692  0.71702651     0.15900
H2312       H  0.74017105  0.86947585  0.62915247     0.15900
N2313       N  0.81057862  0.95284461  0.91147954    -0.00400
C2314       C  0.82614962  0.98769196  0.88332327     0.02200
C2315       C  0.82232650  0.70270788  0.90195543    -0.20700
C2316       C  0.80714889  0.69812048  0.94608994    -0.20900
C2317       C  0.79928205  0.98121343  0.95080723     0.02100
H2318       H  0.82947919  0.73820295  0.88445561     0.15900
H2319       H  0.79857698  0.73000347  0.96835139     0.15900
N2320       N  0.81317965  0.89773115  0.90917743    -0.00400
C2321       C  0.84048846  0.87470557  0.89064303     0.02200
C2322       C  0.85838368  0.84584357  0.92898780    -0.20700
C2323       C  0.83918808  0.83974429  0.96837756    -0.20900
C2324       C  0.81039735  0.86790661  0.95383829     0.02100
H2325       H  0.88167295  0.82619739  0.92595991     0.15900
H2326       H  0.84464400  0.81155663  0.00021431     0.15900
O2327       O  0.91885559  0.85029450  0.79823465    -0.54700
C2328       C  0.82218123  0.78934170  0.69533248     0.77900
O2329       O  0.87276539  0.83653927  0.82895062    -0.55900
C2330       C  0.93714438  0.81105348  0.78906989     0.77900
C2331       C  0.90104190  0.88834272  0.64920824     0.80300
Cd2332     Cd  0.87521238  0.83862687  0.73757629     1.37500
O2333       O  0.83635216  0.77143164  0.73740022    -0.54700
O2334       O  0.91192427  0.84426294  0.66797617    -0.53500
C2335       C  0.84817814  0.86564109  0.83603029     0.80200
O2336       O  0.87824888  0.91135482  0.67208336    -0.55900
O2337       O  0.83540676  0.82355756  0.67048030    -0.54300
O2338       O  0.92797253  0.78356810  0.75272456    -0.54300
O2339       O  0.83355154  0.88649691  0.79517890    -0.53500
O2340       O  0.83483854  0.01141357  0.79838279    -0.54700
C2341       C  0.93516639  0.96568960  0.69803888     0.77900
O2342       O  0.84683833  0.69510085  0.67782047    -0.55900
C2343       C  0.84398564  0.98200043  0.83737890     0.77900
C2344       C  0.90920811  0.72260507  0.83346926     0.80300
Cd2345     Cd  0.88231125  0.99772770  0.75566880     1.37500
O2346       O  0.91885271  0.00886478  0.68884341    -0.54700
O2347       O  0.88538115  0.07487959  0.80442948    -0.53500
C2348       C  0.82600644  0.66409092  0.68827322     0.80200
O2349       O  0.92296469  0.68025348  0.82146360    -0.55900
O2350       O  0.92654185  0.60236242  0.73409023    -0.54300
O2351       O  0.87105595  0.62231591  0.83693691    -0.54300
O2352       O  0.83420380  0.96228150  0.72307382    -0.53500
loop_ 
_geom_bond_atom_site_label_1 
_geom_bond_atom_site_label_2 
_geom_bond_distance 
_geom_bond_site_symmetry_2 
_ccdc_geom_bond_type 
C1            C2   1.422       .  A
C1          C986   1.403   1_554  A
C1           C76   1.489       .  S
C2            C3   1.410   1_545  A
C2          C147   1.480       .  S
C3          C984   1.400   1_554  A
C3            H8   1.085       .  S
C4            C5   1.400       .  A
C4          C591   1.400       .  A
C4          C161   1.460       .  S
C5            C6   1.388       .  A
C5           C35   1.464       .  S
C6          C589   1.403       .  A
C6            H7   1.085       .  S
C9           C10   1.422       .  A
C9          C210   1.419       .  A
C9          C168   1.513       .  S
C10         C207   1.419       .  A
C10          C42   1.494       .  S
C11          C12   1.420   1_556  A
C11         C206   1.419       .  A
C11          H16   1.084       .  S
C12          C13   1.416       .  A
C12          C83   1.493       .  S
C13          C14   1.404       .  A
C13         C154   1.489       .  S
C14         C205   1.419   1_554  A
C14          H15   1.082       .  S
N17          C21   1.360       .  A
N17          C18   1.371       .  A
N17          N24   1.437       .  S
C18         C803   1.381       .  A
C18          C87   1.458       .  S
C19          C20   1.356   1_455  A
C19         C410   1.381       .  A
C19          H22   1.078       .  S
C20         C413   1.373   1_655  A
C20          H23   1.083       .  S
C21         C804   1.373   1_445  A
C21         C108   1.444       .  S
N24          C28   1.386       .  A
N24          C25   1.368       .  A
C25          C26   1.375       .  A
C25          C60   1.471       .  S
C26          C27   1.366       .  A
C26          H29   1.084       .  S
C27          C28   1.386       .  A
C27          H30   1.081       .  S
C28          C99   1.534       .  S
N31          C35   1.361       .  A
N31          C32   1.368       .  A
N31          N38   1.431       .  S
C32         C425   1.377       .  A
C32          C90   1.471       .  S
C33          C34   1.357       .  A
C33         C816   1.377   1_545  A
C33          H36   1.082       .  S
C34         C819   1.383   1_545  A
C34          H37   1.080       .  S
C35         C426   1.383       .  A
N38          C42   1.375       .  A
N38          C39   1.360       .  A
C39          C40   1.380       .  A
C39          C67   1.468       .  S
C40          C41   1.365       .  A
C40          H43   1.082       .  S
C41          C42   1.379       .  A
C41          H44   1.083       .  S
N45          C49   1.375       .  A
N45          C46   1.353       .  A
N45          N52   1.433       .  S
C46         C439   1.374       .  A
C46          C94   1.465       .  S
C47          C48   1.363       .  A
C47         C830   1.374       .  A
C47          H50   1.075       .  S
C48         C833   1.390       .  A
C48          H51   1.079   1_554  S
C49         C440   1.390       .  A
C49         C110   1.526       .  S
N52          C56   1.361       .  A
N52          C53   1.373       .  A
C53          C54   1.385       .  A
C53          C63   1.479       .  S
C54          C55   1.371   1_455  A
C54          H57   1.081       .  S
C55          C56   1.376   1_655  A
C55          H58   1.082       .  S
C56         C103   1.464       .  S
O59          C62   1.272       .  A
O59         Cd64   2.560       .  S
C60          O69   1.266       .  A
C60          O65   1.279       .  A
O61          C67   1.266       .  A
O61         Cd64   2.469       .  S
C62          C80   1.467       .  S
C62          O70   1.256       .  A
C63          O68   1.279       .  A
C63          O66   1.262       .  A
Cd64         O71   2.440       .  S
Cd64         O70   2.354       .  S
Cd64         O69   2.394       .  S
Cd64         O65   2.486       .  S
Cd64         O68   2.535       .  S
Cd64         O66   2.400       .  S
C67          O71   1.261       .  A
N72          C76   1.362       .  A
N72          C73   1.372       .  A
N72          N79   1.431       .  S
C73         C858   1.372       .  A
C73          C89   1.456       .  S
C74          C75   1.351       .  A
C74         C465   1.372       .  A
C74          H77   1.083       .  S
C75         C468   1.389       .  A
C75          H78   1.082       .  S
C76         C859   1.389       .  A
N79          C83   1.384       .  A
N79          C80   1.371       .  A
C80          C81   1.372       .  A
C81          C82   1.353       .  A
C81          H84   1.081       .  S
C82          C83   1.383       .  A
C82          H85   1.084       .  S
O86          C89   1.269       .  A
O86        Cd875   2.439   1_545  S
C87          O92   1.270       .  A
C87         O880   1.266   1_545  A
O88          C94   1.264       .  A
O88         Cd91   2.437       .  S
C89         O881   1.261       .  A
C90          O95   1.268       .  A
C90         O485   1.260       .  A
Cd91         O97   2.388       .  S
Cd91         O96   2.402       .  S
Cd91         O95   2.533       .  S
Cd91        O478   2.438       .  S
Cd91        O490   2.406       .  S
Cd91        O484   2.475       .  S
Cd91        O485   2.391       .  S
O92        Cd875   2.475   1_545  S
O93         C874   1.260   1_545  A
O93        Cd875   2.391   1_545  S
C94         O490   1.258       .  A
O96         C479   1.266       .  A
O97         C481   1.261       .  A
O98         C878   1.258       .  A
O98        Cd875   2.406       .  S
C99        C1276   1.409   1_455  A
C99         C300   1.416       .  A
C100        C101   1.419       .  A
C100       C1275   1.409       .  A
C100        C126   1.461       .  S
C101        C298   1.420       .  A
C101        H106   1.081       .  S
C102        C297   1.420   1_554  A
C102       C1279   1.413       .  A
C102        C140   1.537       .  S
C103        C104   1.418       .  A
C103       C1278   1.413   1_455  A
C104        C295   1.416   1_554  A
C104        H105   1.083       .  S
C107       C1284   1.404       .  A
C107       C1092   1.411       .  A
C107        C119   1.527       .  S
C108       C1283   1.404   1_455  A
C108       C1089   1.409   1_545  A
C109        C110   1.410   1_556  A
C109        C696   1.409       .  A
C109        H114   1.081       .  S
C110       C1287   1.412   1_455  A
C111        C112   1.411       .  A
C111       C1286   1.412       .  A
C111        C133   1.454       .  S
C112        C695   1.411   1_554  A
C112        H309   1.082       .  S
H113        C308   1.082       .  S
N115        C119   1.384       .  A
N115        C116   1.357       .  A
N115        N122   1.436       .  S
C116        C901   1.371       .  A
C116        C188   1.469       .  S
C117        C118   1.356       .  A
C117        C508   1.371       .  A
C117        H120   1.063       .  S
C118        C511   1.385       .  A
C118        H121   1.080       .  S
C119        C902   1.385       .  A
N122        C126   1.361       .  A
N122        C123   1.374       .  A
C123        C124   1.385       .  A
C123        C174   1.473       .  S
C124        C125   1.369       .  A
C124        H127   1.081       .  S
C125        C126   1.376       .  A
C125        H128   1.082       .  S
N129        C133   1.364       .  A
N129        C130   1.374       .  A
N129        N136   1.438       .  S
C130        C523   1.380       .  A
C130        C185   1.467       .  S
C131        C132   1.358       .  A
C131        C914   1.380       .  A
C131        H134   1.079   1_565  S
C132        C917   1.374       .  A
C132        H135   1.083   1_565  S
C133        C524   1.374       .  A
N136        C140   1.385       .  A
N136        C137   1.366       .  A
C137        C138   1.375       .  A
C137        C175   1.476       .  S
C138        C139   1.368       .  A
C138        H141   1.083       .  S
C139        C140   1.389       .  A
C139        H142   1.078   1_554  S
N143        C147   1.374       .  A
N143        C144   1.364       .  A
N143        N150   1.429       .  S
C144        C929   1.378   1_545  A
C144        C192   1.483   1_545  S
C145        C146   1.370       .  A
C145        C536   1.378       .  A
C145        H148   1.080       .  S
C146        C539   1.382       .  A
C146        H149   1.082       .  S
C147        C930   1.382   1_545  A
N150        C154   1.367       .  A
N150        C151   1.371       .  A
C151        C152   1.378       .  A
C151        C172   1.471       .  S
C152        C153   1.357       .  A
C152        H155   1.082       .  S
C153        C154   1.373       .  A
C153        H156   1.075       .  S
N157        C161   1.372       .  A
N157        C158   1.369       .  A
N157        N164   1.437       .  S
C158        C551   1.372       .  A
C158        C187   1.448       .  S
C159        C160   1.345       .  A
C159        C942   1.372   1_545  A
C159        H162   1.084       .  S
C160        C945   1.383   1_545  A
C160        H163   1.083       .  S
C161        C552   1.383       .  A
N164        C168   1.380       .  A
N164        C165   1.369       .  A
C165        C166   1.370       .  A
C165        C179   1.497       .  S
C166        C167   1.346       .  A
C166        H169   1.073       .  S
C167        C168   1.385       .  A
C167        H170   1.081       .  S
O171        C174   1.266       .  A
O171       Cd176   2.407       .  S
C172        O181   1.260       .  A
C172        O177   1.266       .  A
O173        C179   1.255       .  A
O173       Cd176   2.381       .  S
C174        O182   1.278       .  A
C175        O180   1.275       .  A
C175        O178   1.265       .  A
Cd176       O183   2.634       .  S
Cd176       O182   2.537       .  S
Cd176       O181   2.425       .  S
Cd176       O177   2.497       .  S
Cd176       O180   2.500       .  S
Cd176       O178   2.442       .  S
C179        O183   1.273       .  A
O184        C187   1.263       .  A
O184       Cd189   2.340       .  S
C185        O190   1.272       .  A
C185        O586   1.277       .  A
O186        C192   1.272   1_545  A
O186       Cd973   2.507   1_545  S
C187        O587   1.278       .  A
C188        O193   1.263       .  A
C188        O975   1.272       .  A
Cd189       O196   2.427       .  S
Cd189       O190   2.398       .  S
Cd189       O191   2.441       .  S
Cd189       O578   2.507       .  S
Cd189       O587   2.418       .  S
Cd189       O586   2.464       .  S
Cd189       O585   2.431       .  S
O191        C580   1.272       .  A
C192        O980   1.268       .  A
O193       Cd973   2.431   1_545  S
O194        C969   1.277       .  A
O194       Cd973   2.463       .  S
O195        C971   1.278       .  A
O195       Cd973   2.418       .  S
O196        C584   1.268       .  A
C197        C198   1.422       .  A
C197        C790   1.403       .  A
C197        C272   1.489       .  S
C198        C199   1.410   1_545  A
C198        C343   1.480       .  S
C199        C788   1.400       .  A
C199        H204   1.085       .  S
C200        C395   1.400   1_556  A
C200        C201   1.400       .  A
C200        C357   1.460       .  S
C201        C202   1.388       .  A
C201        C231   1.464       .  S
C202        C393   1.403   1_556  A
C202        H203   1.085       .  S
C205        C206   1.422       .  A
C205        C364   1.513       .  S
C206        C238   1.494       .  S
C207        C208   1.420       .  A
C207        H212   1.084       .  S
C208        C209   1.416       .  A
C208        C279   1.493       .  S
C209        C210   1.404       .  A
C209        C350   1.489       .  S
C210        H211   1.082       .  S
N213        C217   1.360       .  A
N213        C214   1.371       .  A
N213        N220   1.437       .  S
C214        C999   1.381       .  A
C214        C283   1.458       .  S
C215        C606   1.381       .  A
C215        C216   1.356   1_455  A
C215        H218   1.078       .  S
C216        C609   1.373   1_655  A
C216        H219   1.083       .  S
C217       C1000   1.373   1_445  A
C217        C304   1.444       .  S
N220        C224   1.386       .  A
N220        C221   1.368       .  A
C221        C222   1.375       .  A
C221        C256   1.471       .  S
C222        C223   1.366       .  A
C222        H225   1.084       .  S
C223        C224   1.386       .  A
C223        H226   1.082   1_556  S
C224        C295   1.534       .  S
N227        C231   1.361       .  A
N227        C228   1.368       .  A
N227        N234   1.431       .  S
C228        C621   1.377       .  A
C228        C286   1.471       .  S
C229       C1012   1.377   1_545  A
C229        C230   1.357       .  A
C229        H232   1.082       .  S
C230       C1015   1.383   1_545  A
C230        H233   1.080       .  S
C231        C622   1.383       .  A
N234        C238   1.375       .  A
N234        C235   1.360       .  A
C235        C236   1.380       .  A
C235        C263   1.468       .  S
C236        C237   1.365       .  A
C236        H239   1.082       .  S
C237        C238   1.379       .  A
C237        H240   1.082       .  S
N241        C245   1.375       .  A
N241        C242   1.353       .  A
N241        N248   1.433       .  S
C242        C635   1.374       .  A
C242        C290   1.465       .  S
C243       C1026   1.374       .  A
C243        C244   1.363       .  A
C243        H246   1.076       .  S
C244       C1029   1.390       .  A
C244        H247   1.079       .  S
C245        C636   1.390       .  A
C245        C306   1.526       .  S
N248        C252   1.361       .  A
N248        C249   1.373       .  A
C249        C250   1.385       .  A
C249        C259   1.479       .  S
C250        C251   1.371   1_455  A
C250        H253   1.081       .  S
C251        C252   1.376   1_655  A
C251        H254   1.082       .  S
C252        C299   1.464       .  S
O255        C258   1.272       .  A
O255       Cd260   2.560       .  S
C256        O265   1.266       .  A
C256        O261   1.279       .  A
O257        C263   1.266       .  A
O257       Cd260   2.469       .  S
C258        C276   1.467       .  S
C258        O266   1.256       .  A
C259        O264   1.279       .  A
C259        O262   1.262       .  A
Cd260       O267   2.440       .  S
Cd260       O266   2.354       .  S
Cd260       O265   2.394       .  S
Cd260       O261   2.486       .  S
Cd260       O264   2.535       .  S
Cd260       O262   2.400       .  S
C263        O267   1.261       .  A
N268        C272   1.362       .  A
N268        C269   1.372       .  A
N268        N275   1.431       .  S
C269       C1054   1.372       .  A
C269        C285   1.456       .  S
C270        C661   1.372       .  A
C270        C271   1.351       .  A
C270        H273   1.083       .  S
C271        C664   1.389       .  A
C271        H274   1.082       .  S
C272       C1055   1.389       .  A
N275        C279   1.383       .  A
N275        C276   1.371       .  A
C276        C277   1.372       .  A
C277        C278   1.353       .  A
C277        H280   1.081       .  S
C278        C279   1.383       .  A
C278        H281   1.084       .  S
O282        C285   1.269       .  A
O282      Cd1071   2.439   1_545  S
C283       O1076   1.266   1_545  A
C283        O288   1.270       .  A
O284        C290   1.264       .  A
O284       Cd287   2.437       .  S
C285       O1077   1.261       .  A
C286        O291   1.268       .  A
C286        O681   1.260       .  A
Cd287       O674   2.439       .  S
Cd287       O686   2.406       .  S
Cd287       O293   2.388       .  S
Cd287       O292   2.402       .  S
Cd287       O680   2.475       .  S
Cd287       O291   2.533       .  S
Cd287       O681   2.391       .  S
O288      Cd1071   2.475   1_545  S
O289       C1070   1.260   1_545  A
O289      Cd1071   2.391   1_545  S
C290        O686   1.258       .  A
O292        C675   1.266       .  A
O293        C677   1.261       .  A
O294       C1074   1.258       .  A
O294      Cd1071   2.406       .  S
C295       C1472   1.409   1_455  A
C296       C1471   1.409       .  A
C296        C297   1.419       .  A
C296        C322   1.461       .  S
C297        H302   1.081       .  S
C298       C1475   1.413       .  A
C298        C336   1.537       .  S
C299       C1474   1.413   1_455  A
C299        C300   1.418       .  A
C300        H301   1.083       .  S
C303       C1480   1.404       .  A
C303        C896   1.411   1_556  A
C303        C315   1.526       .  S
C304       C1479   1.404   1_455  A
C304        C893   1.409   1_545  A
C305        C500   1.409       .  A
C305        C306   1.410       .  A
C305        H310   1.081       .  S
C306       C1483   1.412   1_455  A
C307       C1482   1.412       .  A
C307        C308   1.411       .  A
C307        C329   1.454       .  S
C308        C499   1.411       .  A
N311        C315   1.384       .  A
N311        C312   1.357       .  A
N311        N318   1.436       .  S
C312       C1097   1.371       .  A
C312        C384   1.469       .  S
C313        C704   1.371       .  A
C313        C314   1.356       .  A
C313        H316   1.064       .  S
C314        C707   1.385       .  A
C314        H317   1.080   1_556  S
C315       C1098   1.385       .  A
N318        C322   1.361       .  A
N318        C319   1.374       .  A
C319        C320   1.385       .  A
C319        C370   1.473       .  S
C320        C321   1.369       .  A
C320        H323   1.081       .  S
C321        C322   1.376       .  A
C321        H324   1.082       .  S
N325        C329   1.364       .  A
N325        C326   1.374       .  A
N325        N332   1.438       .  S
C326        C719   1.380       .  A
C326        C381   1.467       .  S
C327       C1110   1.380       .  A
C327        C328   1.358       .  A
C327        H330   1.079   1_565  S
C328       C1113   1.374       .  A
C328        H331   1.083   1_565  S
C329        C720   1.374       .  A
N332        C336   1.385       .  A
N332        C333   1.366       .  A
C333        C334   1.375       .  A
C333        C371   1.476       .  S
C334        C335   1.368       .  A
C334        H337   1.083       .  S
C335        C336   1.389       .  A
C335        H338   1.078       .  S
N339        C343   1.374       .  A
N339        C340   1.364       .  A
N339        N346   1.429       .  S
C340       C1125   1.378   1_545  A
C340        C388   1.483   1_545  S
C341        C732   1.378       .  A
C341        C342   1.370       .  A
C341        H344   1.080       .  S
C342        C735   1.382       .  A
C342        H345   1.082       .  S
C343       C1126   1.382   1_545  A
N346        C350   1.367       .  A
N346        C347   1.371       .  A
C347        C348   1.378       .  A
C347        C368   1.471       .  S
C348        C349   1.357       .  A
C348        H351   1.082       .  S
C349        C350   1.373       .  A
C349        H352   1.075       .  S
N353        C357   1.372       .  A
N353        C354   1.369       .  A
N353        N360   1.437       .  S
C354        C747   1.372       .  A
C354        C383   1.448       .  S
C355       C1138   1.372   1_545  A
C355        C356   1.345       .  A
C355        H358   1.084       .  S
C356       C1141   1.383   1_545  A
C356        H359   1.083       .  S
C357        C748   1.383       .  A
N360        C364   1.380       .  A
N360        C361   1.369       .  A
C361        C362   1.370       .  A
C361        C375   1.497       .  S
C362        C363   1.346       .  A
C362        H365   1.073       .  S
C363        C364   1.385       .  A
C363        H366   1.081   1_556  S
O367        C370   1.266       .  A
O367       Cd372   2.407       .  S
C368        O377   1.260       .  A
C368        O373   1.266       .  A
O369        C375   1.255       .  A
O369       Cd372   2.381       .  S
C370        O378   1.278       .  A
C371        O376   1.274       .  A
C371        O374   1.265       .  A
Cd372       O379   2.634       .  S
Cd372       O378   2.537       .  S
Cd372       O377   2.425       .  S
Cd372       O373   2.497       .  S
Cd372       O376   2.500       .  S
Cd372       O374   2.442       .  S
C375        O379   1.273       .  A
O380        C383   1.263       .  A
O380       Cd385   2.340       .  S
C381        O782   1.277       .  A
C381        O386   1.272       .  A
O382        C388   1.272   1_545  A
O382      Cd1169   2.507   1_545  S
C383        O783   1.278       .  A
C384        O389   1.263       .  A
C384       O1171   1.272       .  A
Cd385       O774   2.507       .  S
Cd385       O392   2.427       .  S
Cd385       O783   2.418       .  S
Cd385       O782   2.464       .  S
Cd385       O386   2.398       .  S
Cd385       O781   2.431       .  S
Cd385       O387   2.441       .  S
O387        C776   1.272       .  A
C388       O1176   1.268       .  A
O389      Cd1169   2.431   1_545  S
O390       C1165   1.277       .  A
O390      Cd1169   2.463       .  S
O391       C1167   1.278       .  A
O391      Cd1169   2.418       .  S
O392        C780   1.268       .  A
C393        C394   1.422       .  A
C393        C468   1.489       .  S
C394        C395   1.410       .  A
C394        C539   1.479       .  S
C395        H400   1.085       .  S
C396        C983   1.400       .  A
C396        C397   1.400       .  A
C396        C553   1.460       .  S
C397        C398   1.388       .  A
C397        C427   1.464       .  S
C398        C981   1.403       .  A
C398        H399   1.085       .  S
C401        C402   1.422       .  A
C401        C602   1.419       .  A
C401        C560   1.513       .  S
C402        C599   1.419       .  A
C402        C434   1.494       .  S
C403        C598   1.419       .  A
C403        C404   1.420   1_556  A
C403        H408   1.085       .  S
C404        C405   1.416       .  A
C404        C475   1.493       .  S
C405        C406   1.404       .  A
C405        C546   1.489       .  S
C406        C597   1.419   1_554  A
C406        H407   1.082       .  S
N409        C413   1.360       .  A
N409        C410   1.371       .  A
N409        N416   1.437       .  S
C410        C479   1.458       .  S
C411        C802   1.381       .  A
C411        C412   1.356   1_455  A
C411        H414   1.078       .  S
C412        C805   1.373   1_655  A
C412        H415   1.083       .  S
C413        C500   1.444       .  S
N416        C420   1.386       .  A
N416        C417   1.368       .  A
C417        C418   1.375       .  A
C417        C452   1.471       .  S
C418        C419   1.366       .  A
C418        H421   1.084       .  S
C419        C420   1.386       .  A
C419        H422   1.082       .  S
C420        C491   1.534       .  S
N423        C427   1.361       .  A
N423        C424   1.368       .  A
N423        N430   1.431       .  S
C424        C817   1.377       .  A
C424        C482   1.471       .  S
C425        C426   1.357       .  A
C425        H428   1.082       .  S
C426        H429   1.080       .  S
C427        C818   1.383       .  A
N430        C434   1.375       .  A
N430        C431   1.360       .  A
C431        C432   1.380       .  A
C431        C459   1.468       .  S
C432        C433   1.365       .  A
C432        H435   1.082       .  S
C433        C434   1.379       .  A
C433        H436   1.082       .  S
N437        C441   1.375       .  A
N437        C438   1.353       .  A
N437        N444   1.432       .  S
C438        C831   1.374       .  A
C438        C486   1.465       .  S
C439        C440   1.363       .  A
C439        H442   1.075       .  S
C440        H443   1.080   1_554  S
C441        C832   1.390       .  A
C441        C502   1.526       .  S
N444        C448   1.361       .  A
N444        C445   1.373       .  A
C445        C446   1.385       .  A
C445        C455   1.478       .  S
C446        C447   1.371   1_455  A
C446        H449   1.081       .  S
C447        C448   1.376   1_655  A
C447        H450   1.082       .  S
C448        C495   1.464       .  S
O451        C454   1.272       .  A
O451       Cd456   2.559       .  S
C452        O461   1.266       .  A
C452        O457   1.279       .  A
O453        C459   1.266       .  A
O453       Cd456   2.469       .  S
C454        C472   1.466       .  S
C454        O462   1.256       .  A
C455        O460   1.279       .  A
C455        O458   1.262       .  A
Cd456       O463   2.440       .  S
Cd456       O462   2.354       .  S
Cd456       O461   2.395       .  S
Cd456       O457   2.487       .  S
Cd456       O460   2.535       .  S
Cd456       O458   2.400       .  S
C459        O463   1.261       .  A
N464        C468   1.362       .  A
N464        C465   1.372       .  A
N464        N471   1.431       .  S
C465        C481   1.456       .  S
C466        C857   1.372       .  A
C466        C467   1.351       .  A
C466        H469   1.083       .  S
C467        C860   1.389       .  A
C467        H470   1.082       .  S
N471        C475   1.384       .  A
N471        C472   1.371       .  A
C472        C473   1.372       .  A
C473        C474   1.353       .  A
C473        H476   1.081       .  S
C474        C475   1.383       .  A
C474        H477   1.084       .  S
O478        C481   1.269       .  A
C479        O484   1.270       .  A
O480        C486   1.264       .  A
O480       Cd483   2.437       .  S
C482        O487   1.268       .  A
C482        O877   1.260       .  A
Cd483       O870   2.438       .  S
Cd483       O882   2.406       .  S
Cd483       O489   2.388       .  S
Cd483       O488   2.402       .  S
Cd483       O876   2.475       .  S
Cd483       O487   2.533       .  S
Cd483       O877   2.391       .  S
C486        O882   1.258       .  A
O488        C871   1.266       .  A
O489        C873   1.261       .  A
C491       C1668   1.409   1_455  A
C491        C692   1.417       .  A
C492       C1667   1.409       .  A
C492        C493   1.419       .  A
C492        C518   1.462       .  S
C493        C690   1.420       .  A
C493        H498   1.081       .  S
C494        C689   1.420   1_554  A
C494       C1671   1.413       .  A
C494        C532   1.537       .  S
C495       C1670   1.413   1_455  A
C495        C496   1.418       .  A
C496        C687   1.417   1_554  A
C496        H497   1.083       .  S
C499       C1676   1.404       .  A
C499        C511   1.527       .  S
C500       C1675   1.404   1_455  A
C501       C1088   1.408       .  A
C501        C502   1.410   1_556  A
C501        H506   1.081       .  S
C502       C1679   1.412   1_455  A
C503       C1678   1.412       .  A
C503        C504   1.411       .  A
C503        C525   1.454       .  S
C504       C1087   1.411   1_554  A
C504        H701   1.082       .  S
H505        C700   1.082       .  S
N507        C511   1.384       .  A
N507        C508   1.357       .  A
N507        N514   1.436       .  S
C508        C580   1.469       .  S
C509        C900   1.371       .  A
C509        C510   1.356       .  A
C509        H512   1.064       .  S
C510        C903   1.385       .  A
C510        H513   1.080       .  S
N514        C518   1.361       .  A
N514        C515   1.374       .  A
C515        C516   1.385       .  A
C515        C566   1.473       .  S
C516        C517   1.369       .  A
C516        H519   1.081       .  S
C517        C518   1.376       .  A
C517        H520   1.083       .  S
N521        C525   1.364       .  A
N521        C522   1.374       .  A
N521        N528   1.438       .  S
C522        C915   1.380       .  A
C522        C577   1.467       .  S
C523        C524   1.358       .  A
C523        H526   1.079       .  S
C524        H527   1.083       .  S
C525        C916   1.374       .  A
N528        C532   1.385       .  A
N528        C529   1.366       .  A
C529        C530   1.375       .  A
C529        C567   1.476       .  S
C530        C531   1.368       .  A
C530        H533   1.083       .  S
C531        C532   1.389       .  A
C531        H534   1.078   1_554  S
N535        C539   1.374       .  A
N535        C536   1.364       .  A
N535        N542   1.429       .  S
C536        C584   1.483       .  S
C537        C928   1.378       .  A
C537        C538   1.370       .  A
C537        H540   1.080       .  S
C538        C931   1.382       .  A
C538        H541   1.082       .  S
N542        C546   1.367       .  A
N542        C543   1.371       .  A
C543        C544   1.378       .  A
C543        C564   1.471       .  S
C544        C545   1.357       .  A
C544        H547   1.082       .  S
C545        C546   1.373       .  A
C545        H548   1.075       .  S
N549        C553   1.372       .  A
N549        C550   1.369       .  A
N549        N556   1.437       .  S
C550        C943   1.372       .  A
C550        C579   1.449       .  S
C551        C552   1.345       .  A
C551        H554   1.084       .  S
C552        H555   1.083       .  S
C553        C944   1.383       .  A
N556        C560   1.380       .  A
N556        C557   1.369       .  A
C557        C558   1.370       .  A
C557        C571   1.497       .  S
C558        C559   1.346       .  A
C558        H561   1.073       .  S
C559        C560   1.385       .  A
C559        H562   1.081       .  S
O563        C566   1.266       .  A
O563       Cd568   2.407       .  S
C564        O573   1.260       .  A
C564        O569   1.266       .  A
O565        C571   1.255       .  A
O565       Cd568   2.381       .  S
C566        O574   1.278       .  A
C567        O572   1.274       .  A
C567        O570   1.265       .  A
Cd568       O575   2.633       .  S
Cd568       O574   2.537       .  S
Cd568       O573   2.425       .  S
Cd568       O569   2.497       .  S
Cd568       O572   2.501       .  S
Cd568       O570   2.443       .  S
C571        O575   1.273       .  A
O576        C579   1.263       .  A
O576       Cd581   2.341       .  S
C577        O978   1.277       .  A
C577        O582   1.272       .  A
O578        C584   1.272       .  A
C579        O979   1.278       .  A
C580        O585   1.263       .  A
Cd581       O970   2.507       .  S
Cd581       O588   2.426       .  S
Cd581       O979   2.418       .  S
Cd581       O978   2.463       .  S
Cd581       O582   2.398       .  S
Cd581       O977   2.431       .  S
Cd581       O583   2.441       .  S
O583        C972   1.272       .  A
O588        C976   1.268       .  A
C589        C590   1.422       .  A
C589        C664   1.489       .  S
C590        C591   1.410       .  A
C590        C735   1.479       .  S
C591        H596   1.085       .  S
C592        C787   1.400   1_556  A
C592        C593   1.400       .  A
C592        C749   1.460       .  S
C593        C594   1.388       .  A
C593        C623   1.464       .  S
C594        C785   1.403   1_556  A
C594        H595   1.085       .  S
C597        C598   1.422       .  A
C597        C756   1.513       .  S
C598        C630   1.494       .  S
C599        C600   1.420       .  A
C599        H604   1.085       .  S
C600        C601   1.416       .  A
C600        C671   1.493       .  S
C601        C602   1.404       .  A
C601        C742   1.489       .  S
C602        H603   1.083       .  S
N605        C609   1.360       .  A
N605        C606   1.371       .  A
N605        N612   1.437       .  S
C606        C675   1.458       .  S
C607        C998   1.381       .  A
C607        C608   1.356   1_455  A
C607        H610   1.078       .  S
C608       C1001   1.373   1_655  A
C608        H611   1.083       .  S
C609        C696   1.444       .  S
N612        C616   1.386       .  A
N612        C613   1.368       .  A
C613        C614   1.375       .  A
C613        C648   1.471       .  S
C614        C615   1.366       .  A
C614        H617   1.084       .  S
C615        C616   1.386       .  A
C615        H618   1.082   1_556  S
C616        C687   1.534       .  S
N619        C623   1.361       .  A
N619        C620   1.368       .  A
N619        N626   1.431       .  S
C620       C1013   1.377       .  A
C620        C678   1.471       .  S
C621        C622   1.357       .  A
C621        H624   1.082       .  S
C622        H625   1.080       .  S
C623       C1014   1.383       .  A
N626        C630   1.375       .  A
N626        C627   1.360       .  A
C627        C628   1.380       .  A
C627        C655   1.468       .  S
C628        C629   1.365       .  A
C628        H631   1.082       .  S
C629        C630   1.379       .  A
C629        H632   1.082       .  S
N633        C637   1.375       .  A
N633        C634   1.353       .  A
N633        N640   1.432       .  S
C634       C1027   1.374       .  A
C634        C682   1.465       .  S
C635        C636   1.363       .  A
C635        H638   1.075       .  S
C636        H639   1.079       .  S
C637       C1028   1.390       .  A
C637        C698   1.526       .  S
N640        C644   1.361       .  A
N640        C641   1.373       .  A
C641        C642   1.384       .  A
C641        C651   1.478       .  S
C642        C643   1.371   1_455  A
C642        H645   1.082       .  S
C643        C644   1.376   1_655  A
C643        H646   1.082       .  S
C644        C691   1.464       .  S
O647        C650   1.272       .  A
O647       Cd652   2.559       .  S
C648        O657   1.266       .  A
C648        O653   1.279       .  A
O649        C655   1.266       .  A
O649       Cd652   2.469       .  S
C650        C668   1.466       .  S
C650        O658   1.256       .  A
C651        O656   1.279       .  A
C651        O654   1.262       .  A
Cd652       O659   2.440       .  S
Cd652       O658   2.354       .  S
Cd652       O657   2.395       .  S
Cd652       O653   2.486       .  S
Cd652       O656   2.535       .  S
Cd652       O654   2.400       .  S
C655        O659   1.261       .  A
N660        C664   1.362       .  A
N660        C661   1.372       .  A
N660        N667   1.431       .  S
C661        C677   1.456       .  S
C662       C1053   1.372       .  A
C662        C663   1.351       .  A
C662        H665   1.084       .  S
C663       C1056   1.389       .  A
C663        H666   1.082       .  S
N667        C671   1.384       .  A
N667        C668   1.371       .  A
C668        C669   1.372       .  A
C669        C670   1.353       .  A
C669        H672   1.081       .  S
C670        C671   1.383       .  A
C670        H673   1.084       .  S
O674        C677   1.269       .  A
C675        O680   1.270       .  A
O676        C682   1.264       .  A
O676       Cd679   2.437       .  S
C678        O683   1.268       .  A
C678       O1073   1.260       .  A
Cd679      O1066   2.438       .  S
Cd679      O1078   2.406       .  S
Cd679       O685   2.388       .  S
Cd679       O684   2.402       .  S
Cd679      O1072   2.475       .  S
Cd679       O683   2.533       .  S
Cd679      O1073   2.390       .  S
C682       O1078   1.258       .  A
O684       C1067   1.266       .  A
O685       C1069   1.261       .  A
C687       C1864   1.409   1_455  A
C688       C1863   1.409       .  A
C688        C689   1.419       .  A
C688        C714   1.462       .  S
C689        H694   1.081       .  S
C690       C1867   1.413       .  A
C690        C728   1.537       .  S
C691       C1866   1.413   1_455  A
C691        C692   1.418       .  A
C692        H693   1.083       .  S
C695       C1872   1.404       .  A
C695        C707   1.527       .  S
C696       C1871   1.404   1_455  A
C697        C892   1.408       .  A
C697        C698   1.410       .  A
C697        H702   1.081       .  S
C698       C1875   1.412   1_455  A
C699       C1874   1.412       .  A
C699        C700   1.411       .  A
C699        C721   1.454       .  S
C700        C891   1.411       .  A
N703        C707   1.384       .  A
N703        C704   1.357       .  A
N703        N710   1.436       .  S
C704        C776   1.469       .  S
C705       C1096   1.371       .  A
C705        C706   1.356       .  A
C705        H708   1.064       .  S
C706       C1099   1.385       .  A
C706        H709   1.080   1_556  S
N710        C714   1.361       .  A
N710        C711   1.374       .  A
C711        C712   1.385       .  A
C711        C762   1.473       .  S
C712        C713   1.369       .  A
C712        H715   1.081       .  S
C713        C714   1.376       .  A
C713        H716   1.083       .  S
N717        C721   1.364       .  A
N717        C718   1.374       .  A
N717        N724   1.438       .  S
C718       C1111   1.380       .  A
C718        C773   1.467       .  S
C719        C720   1.358       .  A
C719        H722   1.079       .  S
C720        H723   1.083       .  S
C721       C1112   1.374       .  A
N724        C728   1.385       .  A
N724        C725   1.366       .  A
C725        C726   1.375       .  A
C725        C763   1.476       .  S
C726        C727   1.368       .  A
C726        H729   1.083       .  S
C727        C728   1.389       .  A
C727        H730   1.078       .  S
N731        C735   1.374       .  A
N731        C732   1.364       .  A
N731        N738   1.429       .  S
C732        C780   1.483       .  S
C733       C1124   1.378       .  A
C733        C734   1.370       .  A
C733        H736   1.080       .  S
C734       C1127   1.382       .  A
C734        H737   1.082       .  S
N738        C742   1.367       .  A
N738        C739   1.371       .  A
C739        C740   1.378       .  A
C739        C760   1.471       .  S
C740        C741   1.357       .  A
C740        H743   1.082       .  S
C741        C742   1.373       .  A
C741        H744   1.075       .  S
N745        C749   1.372       .  A
N745        C746   1.369       .  A
N745        N752   1.437       .  S
C746       C1139   1.372       .  A
C746        C775   1.449       .  S
C747        C748   1.345       .  A
C747        H750   1.084       .  S
C748        H751   1.083       .  S
C749       C1140   1.383       .  A
N752        C756   1.380       .  A
N752        C753   1.369       .  A
C753        C754   1.370       .  A
C753        C767   1.497       .  S
C754        C755   1.346       .  A
C754        H757   1.073       .  S
C755        C756   1.385       .  A
C755        H758   1.081   1_556  S
O759        C762   1.266       .  A
O759       Cd764   2.407       .  S
C760        O769   1.260       .  A
C760        O765   1.266       .  A
O761        C767   1.255       .  A
O761       Cd764   2.381       .  S
C762        O770   1.278       .  A
C763        O768   1.274       .  A
C763        O766   1.265       .  A
Cd764       O771   2.634       .  S
Cd764       O770   2.537       .  S
Cd764       O769   2.425       .  S
Cd764       O765   2.497       .  S
Cd764       O768   2.501       .  S
Cd764       O766   2.443       .  S
C767        O771   1.273       .  A
O772        C775   1.263       .  A
O772       Cd777   2.341       .  S
C773       O1174   1.277       .  A
C773        O778   1.272       .  A
O774        C780   1.272       .  A
C775       O1175   1.278       .  A
C776        O781   1.263       .  A
Cd777      O1166   2.507       .  S
Cd777       O784   2.426       .  S
Cd777      O1175   2.418       .  S
Cd777      O1174   2.463       .  S
Cd777       O778   2.398       .  S
Cd777      O1173   2.431       .  S
Cd777       O779   2.441       .  S
O779       C1168   1.272       .  A
O784       C1172   1.268       .  A
C785        C786   1.422       .  A
C785        C860   1.489       .  S
C786        C787   1.410       .  A
C786        C931   1.479       .  S
C787        H792   1.085       .  S
C788        C789   1.400       .  A
C788        C945   1.460       .  S
C789        C790   1.388   1_565  A
C789        C819   1.465       .  S
C790        H791   1.085       .  S
C793        C794   1.422       .  A
C793        C994   1.419       .  A
C793        C952   1.513       .  S
C794        C991   1.419       .  A
C794        C826   1.494       .  S
C795        C990   1.419       .  A
C795        C796   1.420   1_556  A
C795        H800   1.084       .  S
C796        C797   1.416       .  A
C796        C867   1.493       .  S
C797        C798   1.404       .  A
C797        C938   1.489       .  S
C798        C989   1.419   1_554  A
C798        H799   1.082       .  S
N801        C805   1.360       .  A
N801        C802   1.371       .  A
N801        N808   1.437       .  S
C802        C871   1.458       .  S
C803        C804   1.356   1_445  A
C803        H806   1.078   1_545  S
C804        H807   1.083       .  S
C805        C892   1.444       .  S
N808        C812   1.386       .  A
N808        C809   1.368       .  A
C809        C810   1.375       .  A
C809        C844   1.471       .  S
C810        C811   1.366       .  A
C810        H813   1.084       .  S
C811        C812   1.386       .  A
C811        H814   1.081       .  S
C812        C883   1.533       .  S
N815        C819   1.361       .  A
N815        C816   1.368       .  A
N815        N822   1.431       .  S
C816        C874   1.471       .  S
C817        C818   1.357       .  A
C817        H820   1.082       .  S
C818        H821   1.080       .  S
N822        C826   1.375       .  A
N822        C823   1.360       .  A
C823        C824   1.380       .  A
C823        C851   1.468       .  S
C824        C825   1.365       .  A
C824        H827   1.082       .  S
C825        C826   1.379       .  A
C825        H828   1.082       .  S
N829        C833   1.375       .  A
N829        C830   1.353       .  A
N829        N836   1.433       .  S
C830        C878   1.465       .  S
C831        C832   1.363       .  A
C831        H834   1.076       .  S
C832        H835   1.080   1_554  S
C833        C894   1.526       .  S
N836        C840   1.361       .  A
N836        C837   1.373       .  A
C837        C838   1.385       .  A
C837        C847   1.478       .  S
C838        C839   1.371   1_455  A
C838        H841   1.081       .  S
C839        C840   1.376   1_655  A
C839        H842   1.082       .  S
C840        C887   1.464       .  S
O843        C846   1.271       .  A
O843       Cd848   2.559       .  S
C844        O853   1.266       .  A
C844        O849   1.279       .  A
O845        C851   1.267       .  A
O845       Cd848   2.469       .  S
C846        C864   1.467       .  S
C846        O854   1.256       .  A
C847        O852   1.279       .  A
C847        O850   1.262       .  A
Cd848       O855   2.440       .  S
Cd848       O854   2.354       .  S
Cd848       O853   2.395       .  S
Cd848       O849   2.486       .  S
Cd848       O852   2.535       .  S
Cd848       O850   2.400       .  S
C851        O855   1.261       .  A
N856        C860   1.362       .  A
N856        C857   1.372       .  A
N856        N863   1.431       .  S
C857        C873   1.456       .  S
C858        C859   1.351       .  A
C858        H861   1.084       .  S
C859        H862   1.082   1_545  S
N863        C867   1.384       .  A
N863        C864   1.371       .  A
C864        C865   1.372       .  A
C865        C866   1.353       .  A
C865        H868   1.081       .  S
C866        C867   1.383       .  A
C866        H869   1.084       .  S
O870        C873   1.269       .  A
C871        O876   1.270       .  A
O872        C878   1.264       .  A
O872       Cd875   2.437       .  S
C874        O879   1.268       .  A
Cd875       O881   2.388   1_565  S
Cd875       O880   2.403       .  S
Cd875       O879   2.533       .  S
C883       C2060   1.409   1_455  A
C883       C1084   1.416       .  A
C884       C2059   1.409       .  A
C884        C885   1.419       .  A
C884        C910   1.462       .  S
C885       C1082   1.420       .  A
C885        H890   1.081       .  S
C886       C1081   1.420   1_554  A
C886       C2063   1.413       .  A
C886        C924   1.537       .  S
C887       C2062   1.413   1_455  A
C887        C888   1.418       .  A
C888       C1079   1.416   1_554  A
C888        H889   1.083       .  S
C891       C2068   1.404       .  A
C891        C903   1.527       .  S
C892       C2067   1.404   1_455  A
C893        C894   1.410   1_556  A
C893        H898   1.081       .  S
C894       C2071   1.412   1_455  A
C895       C2070   1.412       .  A
C895        C896   1.411   1_565  A
C895        C917   1.454       .  S
C896       H1093   1.082       .  S
H897       C1092   1.082       .  S
N899        C903   1.384       .  A
N899        C900   1.357       .  A
N899        N906   1.436       .  S
C900        C972   1.469       .  S
C901        C902   1.355       .  A
C901        H904   1.064       .  S
C902        H905   1.080       .  S
N906        C910   1.361       .  A
N906        C907   1.374       .  A
C907        C908   1.385       .  A
C907        C958   1.473       .  S
C908        C909   1.369       .  A
C908        H911   1.081       .  S
C909        C910   1.376       .  A
C909        H912   1.083       .  S
N913        C917   1.364       .  A
N913        C914   1.374       .  A
N913        N920   1.438       .  S
C914        C969   1.467       .  S
C915        C916   1.358       .  A
C915        H918   1.079       .  S
C916        H919   1.083       .  S
N920        C924   1.385       .  A
N920        C921   1.366       .  A
C921        C922   1.375       .  A
C921        C959   1.476       .  S
C922        C923   1.368       .  A
C922        H925   1.083       .  S
C923        C924   1.389       .  A
C923        H926   1.078   1_554  S
N927        C931   1.374       .  A
N927        C928   1.364       .  A
N927        N934   1.429       .  S
C928        C976   1.483       .  S
C929        C930   1.370       .  A
C929        H932   1.080       .  S
C930        H933   1.082       .  S
N934        C938   1.367       .  A
N934        C935   1.371       .  A
C935        C936   1.379       .  A
C935        C956   1.471       .  S
C936        C937   1.357       .  A
C936        H939   1.082       .  S
C937        C938   1.373       .  A
C937        H940   1.075       .  S
N941        C945   1.372       .  A
N941        C942   1.369       .  A
N941        N948   1.437       .  S
C942        C971   1.449       .  S
C943        C944   1.345       .  A
C943        H946   1.084       .  S
C944        H947   1.083       .  S
N948        C952   1.380       .  A
N948        C949   1.369       .  A
C949        C950   1.370       .  A
C949        C963   1.497       .  S
C950        C951   1.346       .  A
C950        H953   1.073       .  S
C951        C952   1.385       .  A
C951        H954   1.081       .  S
O955        C958   1.266       .  A
O955       Cd960   2.407       .  S
C956        O965   1.260       .  A
C956        O961   1.266       .  A
O957        C963   1.255       .  A
O957       Cd960   2.381       .  S
C958        O966   1.278       .  A
C959        O964   1.275       .  A
C959        O962   1.265       .  A
Cd960       O967   2.633       .  S
Cd960       O966   2.537       .  S
Cd960       O965   2.424       .  S
Cd960       O961   2.497       .  S
Cd960       O964   2.500       .  S
Cd960       O962   2.442       .  S
C963        O967   1.273       .  A
O968        C971   1.263   1_545  A
O968       Cd973   2.340   1_545  S
C969        O974   1.272   1_565  A
O970        C976   1.272       .  A
C972        O977   1.263       .  A
Cd973       O980   2.426       .  S
Cd973       O974   2.398   1_565  S
Cd973       O975   2.441   1_565  S
C981        C982   1.422       .  A
C981       C1056   1.489       .  S
C982        C983   1.410       .  A
C982       C1127   1.479       .  S
C983        H988   1.085       .  S
C984        C985   1.400       .  A
C984       C1141   1.460       .  S
C985        C986   1.388   1_565  A
C985       C1015   1.465       .  S
C986        H987   1.085       .  S
C989        C990   1.422       .  A
C989       C1148   1.513       .  S
C990       C1022   1.494       .  S
C991        C992   1.420       .  A
C991        H996   1.084       .  S
C992        C993   1.416       .  A
C992       C1063   1.493       .  S
C993        C994   1.404       .  A
C993       C1134   1.489       .  S
C994        H995   1.083       .  S
N997       C1001   1.360       .  A
N997        C998   1.371       .  A
N997       N1004   1.437       .  S
C998       C1067   1.458       .  S
C999       C1000   1.356   1_445  A
C999       H1002   1.078   1_545  S
C1000      H1003   1.083       .  S
C1001      C1088   1.444       .  S
N1004      C1008   1.386       .  A
N1004      C1005   1.368       .  A
C1005      C1006   1.375       .  A
C1005      C1040   1.471       .  S
C1006      C1007   1.366       .  A
C1006      H1009   1.084       .  S
C1007      C1008   1.386       .  A
C1007      H1010   1.081   1_556  S
C1008      C1079   1.533       .  S
N1011      C1015   1.361       .  A
N1011      C1012   1.368       .  A
N1011      N1018   1.431       .  S
C1012      C1070   1.471       .  S
C1013      C1014   1.357       .  A
C1013      H1016   1.082       .  S
C1014      H1017   1.080       .  S
N1018      C1022   1.375       .  A
N1018      C1019   1.360       .  A
C1019      C1020   1.380       .  A
C1019      C1047   1.468       .  S
C1020      C1021   1.365       .  A
C1020      H1023   1.082       .  S
C1021      C1022   1.379       .  A
C1021      H1024   1.082       .  S
N1025      C1029   1.375       .  A
N1025      C1026   1.353       .  A
N1025      N1032   1.433       .  S
C1026      C1074   1.465       .  S
C1027      C1028   1.363       .  A
C1027      H1030   1.075       .  S
C1028      H1031   1.079       .  S
C1029      C1090   1.526       .  S
N1032      C1036   1.361       .  A
N1032      C1033   1.373       .  A
C1033      C1034   1.385       .  A
C1033      C1043   1.478       .  S
C1034      C1035   1.371   1_455  A
C1034      H1037   1.081       .  S
C1035      C1036   1.376   1_655  A
C1035      H1038   1.083       .  S
C1036      C1083   1.464       .  S
O1039      C1042   1.271       .  A
O1039     Cd1044   2.560       .  S
C1040      O1049   1.266       .  A
C1040      O1045   1.279       .  A
O1041      C1047   1.267       .  A
O1041     Cd1044   2.469       .  S
C1042      C1060   1.467       .  S
C1042      O1050   1.256       .  A
C1043      O1048   1.279       .  A
C1043      O1046   1.262       .  A
Cd1044     O1051   2.440       .  S
Cd1044     O1050   2.354       .  S
Cd1044     O1049   2.395       .  S
Cd1044     O1045   2.486       .  S
Cd1044     O1048   2.535       .  S
Cd1044     O1046   2.400       .  S
C1047      O1051   1.261       .  A
N1052      C1056   1.362       .  A
N1052      C1053   1.372       .  A
N1052      N1059   1.431       .  S
C1053      C1069   1.456       .  S
C1054      C1055   1.351       .  A
C1054      H1057   1.084       .  S
C1055      H1058   1.082   1_545  S
N1059      C1063   1.384       .  A
N1059      C1060   1.371       .  A
C1060      C1061   1.372       .  A
C1061      C1062   1.353       .  A
C1061      H1064   1.081       .  S
C1062      C1063   1.383       .  A
C1062      H1065   1.084       .  S
O1066      C1069   1.269       .  A
C1067      O1072   1.270       .  A
O1068      C1074   1.264       .  A
O1068     Cd1071   2.437       .  S
C1070      O1075   1.268       .  A
Cd1071     O1077   2.388   1_565  S
Cd1071     O1076   2.403       .  S
Cd1071     O1075   2.533       .  S
C1079      C2256   1.409   1_455  A
C1080      C2255   1.409       .  A
C1080      C1081   1.419       .  A
C1080      C1106   1.462       .  S
C1081      H1086   1.081       .  S
C1082      C2259   1.413       .  A
C1082      C1120   1.537       .  S
C1083      C2258   1.413   1_455  A
C1083      C1084   1.418       .  A
C1084      H1085   1.083       .  S
C1087      C2264   1.404       .  A
C1087      C1099   1.527       .  S
C1088      C2263   1.404   1_455  A
C1089      C1090   1.410       .  A
C1089      H1094   1.081       .  S
C1090      C2267   1.412   1_455  A
C1091      C2266   1.412       .  A
C1091      C1092   1.411   1_565  A
C1091      C1113   1.454       .  S
N1095      C1099   1.384       .  A
N1095      C1096   1.358       .  A
N1095      N1102   1.436       .  S
C1096      C1168   1.469       .  S
C1097      C1098   1.355       .  A
C1097      H1100   1.064       .  S
C1098      H1101   1.080   1_556  S
N1102      C1106   1.361       .  A
N1102      C1103   1.374       .  A
C1103      C1104   1.385       .  A
C1103      C1154   1.473       .  S
C1104      C1105   1.369       .  A
C1104      H1107   1.081       .  S
C1105      C1106   1.376       .  A
C1105      H1108   1.083       .  S
N1109      C1113   1.364       .  A
N1109      C1110   1.374       .  A
N1109      N1116   1.438       .  S
C1110      C1165   1.467       .  S
C1111      C1112   1.358       .  A
C1111      H1114   1.079       .  S
C1112      H1115   1.083       .  S
N1116      C1120   1.385       .  A
N1116      C1117   1.366       .  A
C1117      C1118   1.375       .  A
C1117      C1155   1.476       .  S
C1118      C1119   1.368       .  A
C1118      H1121   1.083       .  S
C1119      C1120   1.389       .  A
C1119      H1122   1.078       .  S
N1123      C1127   1.374       .  A
N1123      C1124   1.364       .  A
N1123      N1130   1.429       .  S
C1124      C1172   1.483       .  S
C1125      C1126   1.370       .  A
C1125      H1128   1.080       .  S
C1126      H1129   1.082       .  S
N1130      C1134   1.367       .  A
N1130      C1131   1.371       .  A
C1131      C1132   1.379       .  A
C1131      C1152   1.471       .  S
C1132      C1133   1.357       .  A
C1132      H1135   1.082       .  S
C1133      C1134   1.373       .  A
C1133      H1136   1.075       .  S
N1137      C1141   1.372       .  A
N1137      C1138   1.369       .  A
N1137      N1144   1.437       .  S
C1138      C1167   1.449       .  S
C1139      C1140   1.345       .  A
C1139      H1142   1.084       .  S
C1140      H1143   1.083       .  S
N1144      C1148   1.380       .  A
N1144      C1145   1.369       .  A
C1145      C1146   1.370       .  A
C1145      C1159   1.497       .  S
C1146      C1147   1.346       .  A
C1146      H1149   1.073       .  S
C1147      C1148   1.385       .  A
C1147      H1150   1.081   1_556  S
O1151      C1154   1.266       .  A
O1151     Cd1156   2.407       .  S
C1152      O1161   1.260       .  A
C1152      O1157   1.266       .  A
O1153      C1159   1.255       .  A
O1153     Cd1156   2.381       .  S
C1154      O1162   1.278       .  A
C1155      O1160   1.275       .  A
C1155      O1158   1.265       .  A
Cd1156     O1163   2.633       .  S
Cd1156     O1162   2.537       .  S
Cd1156     O1161   2.424       .  S
Cd1156     O1157   2.497       .  S
Cd1156     O1160   2.500       .  S
Cd1156     O1158   2.442       .  S
C1159      O1163   1.273       .  A
O1164      C1167   1.263   1_545  A
O1164     Cd1169   2.340   1_545  S
C1165      O1170   1.272   1_565  A
O1166      C1172   1.272       .  A
C1168      O1173   1.263       .  A
Cd1169     O1176   2.426       .  S
Cd1169     O1170   2.398   1_565  S
Cd1169     O1171   2.441   1_565  S
C1177      C1178   1.422       .  A
C1177      C2162   1.403   1_554  A
C1177      C1252   1.489       .  S
C1178      C1179   1.410   1_545  A
C1178      C1323   1.479       .  S
C1179      C2160   1.400   1_554  A
C1179      H1184   1.085       .  S
C1180      C1767   1.400       .  A
C1180      C1181   1.400       .  A
C1180      C1337   1.460       .  S
C1181      C1182   1.388       .  A
C1181      C1211   1.464       .  S
C1182      C1765   1.402       .  A
C1182      H1183   1.085       .  S
C1185      C1186   1.422       .  A
C1185      C1386   1.419       .  A
C1185      C1344   1.513       .  S
C1186      C1383   1.419       .  A
C1186      C1218   1.494       .  S
C1187      C1382   1.419       .  A
C1187      C1188   1.420   1_556  A
C1187      H1192   1.085       .  S
C1188      C1189   1.416       .  A
C1188      C1259   1.493       .  S
C1189      C1190   1.404       .  A
C1189      C1330   1.489       .  S
C1190      C1381   1.419   1_554  A
C1190      H1191   1.083       .  S
N1193      C1197   1.360       .  A
N1193      C1194   1.371       .  A
N1193      N1200   1.437       .  S
C1194      C1979   1.381       .  A
C1194      C1263   1.458       .  S
C1195      C1586   1.381       .  A
C1195      C1196   1.356       .  A
C1195      H1198   1.078       .  S
C1196      C1589   1.373       .  A
C1196      H1199   1.083       .  S
C1197      C1980   1.373   1_545  A
C1197      C1284   1.444       .  S
N1200      C1204   1.386       .  A
N1200      C1201   1.368       .  A
C1201      C1202   1.375       .  A
C1201      C1236   1.471       .  S
C1202      C1203   1.366       .  A
C1202      H1205   1.084       .  S
C1203      C1204   1.386       .  A
C1203      H1206   1.081       .  S
C1204      C1275   1.533       .  S
N1207      C1211   1.361       .  A
N1207      C1208   1.368       .  A
N1207      N1214   1.431       .  S
C1208      C1601   1.377       .  A
C1208      C1266   1.471       .  S
C1209      C1992   1.377   1_545  A
C1209      C1210   1.357       .  A
C1209      H1212   1.082       .  S
C1210      C1995   1.383   1_545  A
C1210      H1213   1.080       .  S
C1211      C1602   1.383       .  A
N1214      C1218   1.375       .  A
N1214      C1215   1.360       .  A
C1215      C1216   1.380       .  A
C1215      C1243   1.468       .  S
C1216      C1217   1.365       .  A
C1216      H1219   1.082       .  S
C1217      C1218   1.379       .  A
C1217      H1220   1.082       .  S
N1221      C1225   1.375       .  A
N1221      C1222   1.353       .  A
N1221      N1228   1.433       .  S
C1222      C1615   1.374       .  A
C1222      C1270   1.465       .  S
C1223      C2006   1.374       .  A
C1223      C1224   1.363       .  A
C1223      H1226   1.076       .  S
C1224      C2009   1.390       .  A
C1224      H1227   1.080   1_554  S
C1225      C1616   1.390       .  A
C1225      C1286   1.526       .  S
N1228      C1232   1.361       .  A
N1228      C1229   1.373       .  A
C1229      C1230   1.385       .  A
C1229      C1239   1.478       .  S
C1230      C1231   1.371       .  A
C1230      H1233   1.082       .  S
C1231      C1232   1.376       .  A
C1231      H1234   1.082       .  S
C1232      C1279   1.464       .  S
O1235      C1238   1.271       .  A
O1235     Cd1240   2.559       .  S
C1236      O1245   1.266       .  A
C1236      O1241   1.279       .  A
O1237      C1243   1.267       .  A
O1237     Cd1240   2.469       .  S
C1238      C1256   1.466       .  S
C1238      O1246   1.256       .  A
C1239      O1244   1.279       .  A
C1239      O1242   1.262       .  A
Cd1240     O1247   2.440       .  S
Cd1240     O1246   2.354       .  S
Cd1240     O1245   2.395       .  S
Cd1240     O1241   2.486       .  S
Cd1240     O1244   2.535       .  S
Cd1240     O1242   2.400       .  S
C1243      O1247   1.261       .  A
N1248      C1252   1.362       .  A
N1248      C1249   1.372       .  A
N1248      N1255   1.431       .  S
C1249      C2034   1.372       .  A
C1249      C1265   1.456       .  S
C1250      C1641   1.372       .  A
C1250      C1251   1.351       .  A
C1250      H1253   1.083       .  S
C1251      C1644   1.389       .  A
C1251      H1254   1.082       .  S
C1252      C2035   1.389       .  A
N1255      C1259   1.384       .  A
N1255      C1256   1.371       .  A
C1256      C1257   1.372       .  A
C1257      C1258   1.353       .  A
C1257      H1260   1.081       .  S
C1258      C1259   1.383       .  A
C1258      H1261   1.084       .  S
O1262      C1265   1.269       .  A
O1262     Cd2051   2.438   1_545  S
C1263      O2056   1.266   1_545  A
C1263      O1268   1.270       .  A
O1264      C1270   1.264       .  A
O1264     Cd1267   2.437       .  S
C1265      O2057   1.261       .  A
C1266      O1271   1.268       .  A
C1266      O1661   1.260       .  A
Cd1267     O1654   2.439       .  S
Cd1267     O1666   2.406       .  S
Cd1267     O1273   2.388       .  S
Cd1267     O1272   2.402       .  S
Cd1267     O1660   2.475       .  S
Cd1267     O1271   2.533       .  S
Cd1267     O1661   2.391       .  S
O1268     Cd2051   2.475   1_545  S
O1269      C2050   1.260   1_545  A
O1269     Cd2051   2.391   1_545  S
C1270      O1666   1.258       .  A
O1272      C1655   1.266       .  A
O1273      C1657   1.261       .  A
O1274      C2054   1.258       .  A
O1274     Cd2051   2.406       .  S
C1275      C1476   1.416       .  A
C1276      C1277   1.419       .  A
C1276      C1302   1.462       .  S
C1277      C1474   1.420       .  A
C1277      H1282   1.081       .  S
C1278      C1473   1.420   1_554  A
C1278      C1316   1.537       .  S
C1279      C1280   1.418       .  A
C1280      C1471   1.416   1_554  A
C1280      H1281   1.083       .  S
C1283      C2268   1.411       .  A
C1283      C1295   1.527       .  S
C1284      C2265   1.408   1_545  A
C1285      C1872   1.409       .  A
C1285      C1286   1.410   1_556  A
C1285      H1290   1.081       .  S
C1287      C1288   1.411       .  A
C1287      C1309   1.454       .  S
C1288      C1871   1.411   1_554  A
C1288      H1485   1.082       .  S
H1289      C1484   1.082       .  S
N1291      C1295   1.384       .  A
N1291      C1292   1.357       .  A
N1291      N1298   1.436       .  S
C1292      C2077   1.371       .  A
C1292      C1364   1.469       .  S
C1293      C1684   1.371       .  A
C1293      C1294   1.356       .  A
C1293      H1296   1.064       .  S
C1294      C1687   1.385       .  A
C1294      H1297   1.080       .  S
C1295      C2078   1.385       .  A
N1298      C1302   1.361       .  A
N1298      C1299   1.374       .  A
C1299      C1300   1.385       .  A
C1299      C1350   1.473       .  S
C1300      C1301   1.369   1_655  A
C1300      H1303   1.081       .  S
C1301      C1302   1.376   1_455  A
C1301      H1304   1.083       .  S
N1305      C1309   1.364       .  A
N1305      C1306   1.374       .  A
N1305      N1312   1.438       .  S
C1306      C1699   1.380       .  A
C1306      C1361   1.467       .  S
C1307      C2090   1.380       .  A
C1307      C1308   1.358   1_655  A
C1307      H1310   1.079   1_565  S
C1308      C2093   1.374   1_455  A
C1308      H1311   1.083   1_565  S
C1309      C1700   1.374   1_655  A
N1312      C1316   1.385       .  A
N1312      C1313   1.366       .  A
C1313      C1314   1.375       .  A
C1313      C1351   1.476       .  S
C1314      C1315   1.368       .  A
C1314      H1317   1.083       .  S
C1315      C1316   1.389       .  A
C1315      H1318   1.078   1_554  S
N1319      C1323   1.374       .  A
N1319      C1320   1.364       .  A
N1319      N1326   1.429       .  S
C1320      C2105   1.378   1_545  A
C1320      C1368   1.483   1_545  S
C1321      C1712   1.378       .  A
C1321      C1322   1.370       .  A
C1321      H1324   1.080       .  S
C1322      C1715   1.382       .  A
C1322      H1325   1.082       .  S
C1323      C2106   1.382   1_545  A
N1326      C1330   1.367       .  A
N1326      C1327   1.371       .  A
C1327      C1328   1.378       .  A
C1327      C1348   1.471       .  S
C1328      C1329   1.357       .  A
C1328      H1331   1.082       .  S
C1329      C1330   1.373       .  A
C1329      H1332   1.075       .  S
N1333      C1337   1.372       .  A
N1333      C1334   1.369       .  A
N1333      N1340   1.437       .  S
C1334      C1727   1.372       .  A
C1334      C1363   1.449       .  S
C1335      C2118   1.372   1_545  A
C1335      C1336   1.345       .  A
C1335      H1338   1.084       .  S
C1336      C2121   1.383   1_545  A
C1336      H1339   1.084       .  S
C1337      C1728   1.383       .  A
N1340      C1344   1.380       .  A
N1340      C1341   1.369       .  A
C1341      C1342   1.370       .  A
C1341      C1355   1.497       .  S
C1342      C1343   1.346       .  A
C1342      H1345   1.073       .  S
C1343      C1344   1.385       .  A
C1343      H1346   1.081       .  S
O1347      C1350   1.266       .  A
O1347     Cd1352   2.406       .  S
C1348      O1357   1.260       .  A
C1348      O1353   1.266       .  A
O1349      C1355   1.255       .  A
O1349     Cd1352   2.381       .  S
C1350      O1358   1.278       .  A
C1351      O1356   1.274       .  A
C1351      O1354   1.265       .  A
Cd1352     O1359   2.633       .  S
Cd1352     O1358   2.537       .  S
Cd1352     O1357   2.425       .  S
Cd1352     O1353   2.497       .  S
Cd1352     O1356   2.501       .  S
Cd1352     O1354   2.443       .  S
C1355      O1359   1.273       .  A
O1360      C1363   1.263       .  A
O1360     Cd1365   2.341       .  S
C1361      O1762   1.277       .  A
C1361      O1366   1.272       .  A
O1362      C1368   1.272   1_545  A
O1362     Cd2149   2.507   1_545  S
C1363      O1763   1.278       .  A
C1364      O1369   1.263       .  A
C1364      O2151   1.272       .  A
Cd1365     O1754   2.507       .  S
Cd1365     O1372   2.426       .  S
Cd1365     O1763   2.418       .  S
Cd1365     O1762   2.463       .  S
Cd1365     O1366   2.398       .  S
Cd1365     O1761   2.431       .  S
Cd1365     O1367   2.441       .  S
O1367      C1756   1.272       .  A
C1368      O2156   1.268       .  A
O1369     Cd2149   2.431   1_545  S
O1370      C2145   1.277       .  A
O1370     Cd2149   2.464       .  S
O1371      C2147   1.278       .  A
O1371     Cd2149   2.418       .  S
O1372      C1760   1.268       .  A
C1373      C1374   1.422       .  A
C1373      C1966   1.403       .  A
C1373      C1448   1.489       .  S
C1374      C1375   1.410   1_545  A
C1374      C1519   1.479       .  S
C1375      C1964   1.400       .  A
C1375      H1380   1.085       .  S
C1376      C1571   1.400   1_556  A
C1376      C1377   1.400       .  A
C1376      C1533   1.460       .  S
C1377      C1378   1.388       .  A
C1377      C1407   1.464       .  S
C1378      C1569   1.403   1_556  A
C1378      H1379   1.085       .  S
C1381      C1382   1.422       .  A
C1381      C1540   1.513       .  S
C1382      C1414   1.494       .  S
C1383      C1384   1.420       .  A
C1383      H1388   1.084       .  S
C1384      C1385   1.416       .  A
C1384      C1455   1.493       .  S
C1385      C1386   1.404       .  A
C1385      C1526   1.489       .  S
C1386      H1387   1.082       .  S
N1389      C1393   1.360       .  A
N1389      C1390   1.371       .  A
N1389      N1396   1.437       .  S
C1390      C2175   1.381       .  A
C1390      C1459   1.458       .  S
C1391      C1782   1.381       .  A
C1391      C1392   1.356       .  A
C1391      H1394   1.078       .  S
C1392      C1785   1.373       .  A
C1392      H1395   1.083       .  S
C1393      C2176   1.373   1_545  A
C1393      C1480   1.444       .  S
N1396      C1400   1.386       .  A
N1396      C1397   1.368       .  A
C1397      C1398   1.375       .  A
C1397      C1432   1.471       .  S
C1398      C1399   1.366       .  A
C1398      H1401   1.084       .  S
C1399      C1400   1.386       .  A
C1399      H1402   1.081   1_556  S
C1400      C1471   1.533       .  S
N1403      C1407   1.361       .  A
N1403      C1404   1.368       .  A
N1403      N1410   1.431       .  S
C1404      C1797   1.377       .  A
C1404      C1462   1.471       .  S
C1405      C2188   1.377   1_545  A
C1405      C1406   1.357       .  A
C1405      H1408   1.082       .  S
C1406      C2191   1.383   1_545  A
C1406      H1409   1.080       .  S
C1407      C1798   1.383       .  A
N1410      C1414   1.375       .  A
N1410      C1411   1.360       .  A
C1411      C1412   1.380       .  A
C1411      C1439   1.468       .  S
C1412      C1413   1.365       .  A
C1412      H1415   1.082       .  S
C1413      C1414   1.379       .  A
C1413      H1416   1.082       .  S
N1417      C1421   1.375       .  A
N1417      C1418   1.353       .  A
N1417      N1424   1.432       .  S
C1418      C1811   1.374       .  A
C1418      C1466   1.465       .  S
C1419      C2202   1.374       .  A
C1419      C1420   1.363       .  A
C1419      H1422   1.075       .  S
C1420      C2205   1.390       .  A
C1420      H1423   1.080       .  S
C1421      C1812   1.390       .  A
C1421      C1482   1.526       .  S
N1424      C1428   1.361       .  A
N1424      C1425   1.373       .  A
C1425      C1426   1.385       .  A
C1425      C1435   1.478       .  S
C1426      C1427   1.371       .  A
C1426      H1429   1.081       .  S
C1427      C1428   1.376       .  A
C1427      H1430   1.082       .  S
C1428      C1475   1.464       .  S
O1431      C1434   1.271       .  A
O1431     Cd1436   2.559       .  S
C1432      O1441   1.266       .  A
C1432      O1437   1.279       .  A
O1433      C1439   1.267       .  A
O1433     Cd1436   2.469       .  S
C1434      C1452   1.466       .  S
C1434      O1442   1.256       .  A
C1435      O1440   1.279       .  A
C1435      O1438   1.262       .  A
Cd1436     O1443   2.440       .  S
Cd1436     O1442   2.354       .  S
Cd1436     O1441   2.395       .  S
Cd1436     O1437   2.486       .  S
Cd1436     O1440   2.535       .  S
Cd1436     O1438   2.400       .  S
C1439      O1443   1.261       .  A
N1444      C1448   1.362       .  A
N1444      C1445   1.372       .  A
N1444      N1451   1.431       .  S
C1445      C2230   1.372       .  A
C1445      C1461   1.456       .  S
C1446      C1837   1.372       .  A
C1446      C1447   1.351       .  A
C1446      H1449   1.083       .  S
C1447      C1840   1.389       .  A
C1447      H1450   1.082       .  S
C1448      C2231   1.389       .  A
N1451      C1455   1.384       .  A
N1451      C1452   1.371       .  A
C1452      C1453   1.372       .  A
C1453      C1454   1.353       .  A
C1453      H1456   1.081       .  S
C1454      C1455   1.383       .  A
C1454      H1457   1.084       .  S
O1458      C1461   1.269       .  A
O1458     Cd2247   2.438   1_545  S
C1459      O2252   1.266   1_545  A
C1459      O1464   1.270       .  A
O1460      C1466   1.264       .  A
O1460     Cd1463   2.437       .  S
C1461      O2253   1.261       .  A
C1462      O1467   1.268       .  A
C1462      O1857   1.260       .  A
Cd1463     O1850   2.439       .  S
Cd1463     O1862   2.406       .  S
Cd1463     O1469   2.388       .  S
Cd1463     O1468   2.402       .  S
Cd1463     O1856   2.475       .  S
Cd1463     O1467   2.533       .  S
Cd1463     O1857   2.391       .  S
O1464     Cd2247   2.475   1_545  S
O1465      C2246   1.260   1_545  A
O1465     Cd2247   2.391   1_545  S
C1466      O1862   1.258       .  A
O1468      C1851   1.266       .  A
O1469      C1853   1.261       .  A
O1470      C2250   1.258       .  A
O1470     Cd2247   2.406       .  S
C1472      C1473   1.419       .  A
C1472      C1498   1.462       .  S
C1473      H1478   1.081       .  S
C1474      C1512   1.537       .  S
C1475      C1476   1.418       .  A
C1476      H1477   1.083       .  S
C1479      C2072   1.411   1_556  A
C1479      C1491   1.527       .  S
C1480      C2069   1.408   1_545  A
C1481      C1676   1.409       .  A
C1481      C1482   1.410       .  A
C1481      H1486   1.081       .  S
C1483      C1484   1.411       .  A
C1483      C1505   1.454       .  S
C1484      C1675   1.411       .  A
N1487      C1491   1.384       .  A
N1487      C1488   1.357       .  A
N1487      N1494   1.436       .  S
C1488      C2273   1.371       .  A
C1488      C1560   1.469       .  S
C1489      C1880   1.371       .  A
C1489      C1490   1.355       .  A
C1489      H1492   1.064       .  S
C1490      C1883   1.385       .  A
C1490      H1493   1.080   1_556  S
C1491      C2274   1.385       .  A
N1494      C1498   1.361       .  A
N1494      C1495   1.374       .  A
C1495      C1496   1.385       .  A
C1495      C1546   1.473       .  S
C1496      C1497   1.369   1_655  A
C1496      H1499   1.081       .  S
C1497      C1498   1.376   1_455  A
C1497      H1500   1.083       .  S
N1501      C1505   1.364       .  A
N1501      C1502   1.374       .  A
N1501      N1508   1.438       .  S
C1502      C1895   1.380       .  A
C1502      C1557   1.467       .  S
C1503      C2286   1.380       .  A
C1503      C1504   1.358   1_655  A
C1503      H1506   1.079   1_565  S
C1504      C2289   1.374   1_455  A
C1504      H1507   1.083   1_565  S
C1505      C1896   1.374   1_655  A
N1508      C1512   1.385       .  A
N1508      C1509   1.366       .  A
C1509      C1510   1.375       .  A
C1509      C1547   1.476       .  S
C1510      C1511   1.368       .  A
C1510      H1513   1.083       .  S
C1511      C1512   1.389       .  A
C1511      H1514   1.078       .  S
N1515      C1519   1.374       .  A
N1515      C1516   1.364       .  A
N1515      N1522   1.429       .  S
C1516      C2301   1.378   1_545  A
C1516      C1564   1.483   1_545  S
C1517      C1908   1.378       .  A
C1517      C1518   1.370       .  A
C1517      H1520   1.080       .  S
C1518      C1911   1.382       .  A
C1518      H1521   1.082       .  S
C1519      C2302   1.382   1_545  A
N1522      C1526   1.367       .  A
N1522      C1523   1.371       .  A
C1523      C1524   1.379       .  A
C1523      C1544   1.471       .  S
C1524      C1525   1.357       .  A
C1524      H1527   1.082       .  S
C1525      C1526   1.373       .  A
C1525      H1528   1.075       .  S
N1529      C1533   1.372       .  A
N1529      C1530   1.369       .  A
N1529      N1536   1.437       .  S
C1530      C1923   1.372       .  A
C1530      C1559   1.449       .  S
C1531      C2314   1.372   1_545  A
C1531      C1532   1.345       .  A
C1531      H1534   1.084       .  S
C1532      C2317   1.383   1_545  A
C1532      H1535   1.083       .  S
C1533      C1924   1.383       .  A
N1536      C1540   1.380       .  A
N1536      C1537   1.369       .  A
C1537      C1538   1.370       .  A
C1537      C1551   1.497       .  S
C1538      C1539   1.346       .  A
C1538      H1541   1.073       .  S
C1539      C1540   1.385       .  A
C1539      H1542   1.081   1_556  S
O1543      C1546   1.266       .  A
O1543     Cd1548   2.406       .  S
C1544      O1553   1.260       .  A
C1544      O1549   1.266       .  A
O1545      C1551   1.255       .  A
O1545     Cd1548   2.381       .  S
C1546      O1554   1.278       .  A
C1547      O1552   1.274       .  A
C1547      O1550   1.265       .  A
Cd1548     O1555   2.633       .  S
Cd1548     O1554   2.537       .  S
Cd1548     O1553   2.425       .  S
Cd1548     O1549   2.497       .  S
Cd1548     O1552   2.501       .  S
Cd1548     O1550   2.443       .  S
C1551      O1555   1.273       .  A
O1556      C1559   1.263       .  A
O1556     Cd1561   2.341       .  S
C1557      O1958   1.277       .  A
C1557      O1562   1.272       .  A
O1558      C1564   1.272   1_545  A
O1558     Cd2345   2.507   1_545  S
C1559      O1959   1.278       .  A
C1560      O1565   1.263       .  A
C1560      O2347   1.272       .  A
Cd1561     O1950   2.507       .  S
Cd1561     O1568   2.426       .  S
Cd1561     O1959   2.418       .  S
Cd1561     O1958   2.463       .  S
Cd1561     O1562   2.398       .  S
Cd1561     O1957   2.431       .  S
Cd1561     O1563   2.441       .  S
O1563      C1952   1.272       .  A
C1564      O2352   1.268       .  A
O1565     Cd2345   2.431   1_545  S
O1566      C2341   1.277       .  A
O1566     Cd2345   2.464       .  S
O1567      C2343   1.278       .  A
O1567     Cd2345   2.418       .  S
O1568      C1956   1.268       .  A
C1569      C1570   1.422       .  A
C1569      C1644   1.489       .  S
C1570      C1571   1.410       .  A
C1570      C1715   1.480       .  S
C1571      H1576   1.085       .  S
C1572      C2159   1.400       .  A
C1572      C1573   1.400       .  A
C1572      C1729   1.460       .  S
C1573      C1574   1.388       .  A
C1573      C1603   1.465       .  S
C1574      C2157   1.403       .  A
C1574      H1575   1.085       .  S
C1577      C1578   1.422       .  A
C1577      C1778   1.419       .  A
C1577      C1736   1.513       .  S
C1578      C1775   1.419       .  A
C1578      C1610   1.494       .  S
C1579      C1774   1.419       .  A
C1579      C1580   1.420   1_556  A
C1579      H1584   1.084       .  S
C1580      C1581   1.416       .  A
C1580      C1651   1.493       .  S
C1581      C1582   1.404       .  A
C1581      C1722   1.489       .  S
C1582      C1773   1.419   1_554  A
C1582      H1583   1.083       .  S
N1585      C1589   1.360       .  A
N1585      C1586   1.371       .  A
N1585      N1592   1.437       .  S
C1586      C1655   1.458       .  S
C1587      C1978   1.381       .  A
C1587      C1588   1.356       .  A
C1587      H1590   1.078       .  S
C1588      C1981   1.373       .  A
C1588      H1591   1.083       .  S
C1589      C1676   1.444       .  S
N1592      C1596   1.386       .  A
N1592      C1593   1.368       .  A
C1593      C1594   1.375       .  A
C1593      C1628   1.471       .  S
C1594      C1595   1.366       .  A
C1594      H1597   1.084       .  S
C1595      C1596   1.386       .  A
C1595      H1598   1.081       .  S
C1596      C1667   1.533       .  S
N1599      C1603   1.361       .  A
N1599      C1600   1.368       .  A
N1599      N1606   1.431       .  S
C1600      C1993   1.377       .  A
C1600      C1658   1.471       .  S
C1601      C1602   1.357       .  A
C1601      H1604   1.082       .  S
C1602      H1605   1.080       .  S
C1603      C1994   1.383       .  A
N1606      C1610   1.375       .  A
N1606      C1607   1.360       .  A
C1607      C1608   1.380       .  A
C1607      C1635   1.468       .  S
C1608      C1609   1.365       .  A
C1608      H1611   1.082       .  S
C1609      C1610   1.379       .  A
C1609      H1612   1.082       .  S
N1613      C1617   1.375       .  A
N1613      C1614   1.353       .  A
N1613      N1620   1.433       .  S
C1614      C2007   1.374       .  A
C1614      C1662   1.465       .  S
C1615      C1616   1.363       .  A
C1615      H1618   1.076       .  S
C1616      H1619   1.080   1_554  S
C1617      C2008   1.390       .  A
C1617      C1678   1.527       .  S
N1620      C1624   1.361       .  A
N1620      C1621   1.373       .  A
C1621      C1622   1.385       .  A
C1621      C1631   1.478       .  S
C1622      C1623   1.371       .  A
C1622      H1625   1.081       .  S
C1623      C1624   1.376       .  A
C1623      H1626   1.082       .  S
C1624      C1671   1.464       .  S
O1627      C1630   1.271       .  A
O1627     Cd1632   2.559       .  S
C1628      O1637   1.266       .  A
C1628      O1633   1.279       .  A
O1629      C1635   1.266       .  A
O1629     Cd1632   2.469       .  S
C1630      C1648   1.467       .  S
C1630      O1638   1.256       .  A
C1631      O1636   1.279       .  A
C1631      O1634   1.262       .  A
Cd1632     O1639   2.440       .  S
Cd1632     O1638   2.354       .  S
Cd1632     O1637   2.394       .  S
Cd1632     O1633   2.486       .  S
Cd1632     O1636   2.535       .  S
Cd1632     O1634   2.400       .  S
C1635      O1639   1.261       .  A
N1640      C1644   1.362       .  A
N1640      C1641   1.372       .  A
N1640      N1647   1.431       .  S
C1641      C1657   1.456       .  S
C1642      C2033   1.372       .  A
C1642      C1643   1.351       .  A
C1642      H1645   1.084       .  S
C1643      C2036   1.389       .  A
C1643      H1646   1.082       .  S
N1647      C1651   1.384       .  A
N1647      C1648   1.371       .  A
C1648      C1649   1.372       .  A
C1649      C1650   1.353       .  A
C1649      H1652   1.081       .  S
C1650      C1651   1.383       .  A
C1650      H1653   1.084       .  S
O1654      C1657   1.269       .  A
C1655      O1660   1.270       .  A
O1656      C1662   1.264       .  A
O1656     Cd1659   2.437       .  S
C1658      O1663   1.268       .  A
C1658      O2053   1.260       .  A
Cd1659     O2046   2.438       .  S
Cd1659     O2058   2.406       .  S
Cd1659     O1665   2.388       .  S
Cd1659     O1664   2.403       .  S
Cd1659     O2052   2.475       .  S
Cd1659     O1663   2.533       .  S
Cd1659     O2053   2.391       .  S
C1662      O2058   1.258       .  A
O1664      C2047   1.266       .  A
O1665      C2049   1.261       .  A
C1667      C1868   1.416       .  A
C1668      C1669   1.419       .  A
C1668      C1694   1.462       .  S
C1669      C1866   1.420       .  A
C1669      H1674   1.081       .  S
C1670      C1865   1.420   1_554  A
C1670      C1708   1.537       .  S
C1671      C1672   1.418       .  A
C1672      C1863   1.416   1_554  A
C1672      H1673   1.083       .  S
C1675      C1687   1.527       .  S
C1677      C2264   1.409       .  A
C1677      C1678   1.410   1_556  A
C1677      H1682   1.081       .  S
C1679      C1680   1.411       .  A
C1679      C1701   1.454       .  S
C1680      C2263   1.411   1_554  A
C1680      H1877   1.082       .  S
H1681      C1876   1.082       .  S
N1683      C1687   1.384       .  A
N1683      C1684   1.358       .  A
N1683      N1690   1.436       .  S
C1684      C1756   1.469       .  S
C1685      C2076   1.371       .  A
C1685      C1686   1.355       .  A
C1685      H1688   1.064       .  S
C1686      C2079   1.385       .  A
C1686      H1689   1.080       .  S
N1690      C1694   1.361       .  A
N1690      C1691   1.374       .  A
C1691      C1692   1.385       .  A
C1691      C1742   1.473       .  S
C1692      C1693   1.369   1_655  A
C1692      H1695   1.081       .  S
C1693      C1694   1.376   1_455  A
C1693      H1696   1.083       .  S
N1697      C1701   1.364       .  A
N1697      C1698   1.374       .  A
N1697      N1704   1.438       .  S
C1698      C2091   1.380       .  A
C1698      C1753   1.467       .  S
C1699      C1700   1.358   1_655  A
C1699      H1702   1.079       .  S
C1700      H1703   1.083       .  S
C1701      C2092   1.374   1_655  A
N1704      C1708   1.385       .  A
N1704      C1705   1.366       .  A
C1705      C1706   1.375       .  A
C1705      C1743   1.476       .  S
C1706      C1707   1.368       .  A
C1706      H1709   1.083       .  S
C1707      C1708   1.389       .  A
C1707      H1710   1.078   1_554  S
N1711      C1715   1.374       .  A
N1711      C1712   1.364       .  A
N1711      N1718   1.429       .  S
C1712      C1760   1.483       .  S
C1713      C2104   1.378       .  A
C1713      C1714   1.370       .  A
C1713      H1716   1.080       .  S
C1714      C2107   1.382       .  A
C1714      H1717   1.082       .  S
N1718      C1722   1.366       .  A
N1718      C1719   1.371       .  A
C1719      C1720   1.378       .  A
C1719      C1740   1.471       .  S
C1720      C1721   1.357       .  A
C1720      H1723   1.082       .  S
C1721      C1722   1.373       .  A
C1721      H1724   1.075       .  S
N1725      C1729   1.372       .  A
N1725      C1726   1.369       .  A
N1725      N1732   1.437       .  S
C1726      C2119   1.372       .  A
C1726      C1755   1.449       .  S
C1727      C1728   1.345       .  A
C1727      H1730   1.084       .  S
C1728      H1731   1.083       .  S
C1729      C2120   1.383       .  A
N1732      C1736   1.380       .  A
N1732      C1733   1.369       .  A
C1733      C1734   1.370       .  A
C1733      C1747   1.497       .  S
C1734      C1735   1.346       .  A
C1734      H1737   1.073       .  S
C1735      C1736   1.385       .  A
C1735      H1738   1.081       .  S
O1739      C1742   1.266       .  A
O1739     Cd1744   2.406       .  S
C1740      O1749   1.260       .  A
C1740      O1745   1.266       .  A
O1741      C1747   1.255       .  A
O1741     Cd1744   2.381       .  S
C1742      O1750   1.278       .  A
C1743      O1748   1.275       .  A
C1743      O1746   1.265       .  A
Cd1744     O1751   2.634       .  S
Cd1744     O1750   2.537       .  S
Cd1744     O1749   2.425       .  S
Cd1744     O1745   2.497       .  S
Cd1744     O1748   2.500       .  S
Cd1744     O1746   2.442       .  S
C1747      O1751   1.273       .  A
O1752      C1755   1.263       .  A
O1752     Cd1757   2.340       .  S
C1753      O2154   1.277       .  A
C1753      O1758   1.272       .  A
O1754      C1760   1.272       .  A
C1755      O2155   1.278       .  A
C1756      O1761   1.263       .  A
Cd1757     O2146   2.507       .  S
Cd1757     O1764   2.427       .  S
Cd1757     O2155   2.418       .  S
Cd1757     O2154   2.463       .  S
Cd1757     O1758   2.398       .  S
Cd1757     O2153   2.431       .  S
Cd1757     O1759   2.441       .  S
O1759      C2148   1.272       .  A
O1764      C2152   1.268       .  A
C1765      C1766   1.422       .  A
C1765      C1840   1.489       .  S
C1766      C1767   1.410       .  A
C1766      C1911   1.480       .  S
C1767      H1772   1.085       .  S
C1768      C1963   1.400   1_556  A
C1768      C1769   1.400       .  A
C1768      C1925   1.460       .  S
C1769      C1770   1.388       .  A
C1769      C1799   1.464       .  S
C1770      C1961   1.403   1_556  A
C1770      H1771   1.085       .  S
C1773      C1774   1.422       .  A
C1773      C1932   1.513       .  S
C1774      C1806   1.494       .  S
C1775      C1776   1.420       .  A
C1775      H1780   1.084       .  S
C1776      C1777   1.416       .  A
C1776      C1847   1.493       .  S
C1777      C1778   1.404       .  A
C1777      C1918   1.489       .  S
C1778      H1779   1.082       .  S
N1781      C1785   1.360       .  A
N1781      C1782   1.371       .  A
N1781      N1788   1.437       .  S
C1782      C1851   1.458       .  S
C1783      C2174   1.381       .  A
C1783      C1784   1.356       .  A
C1783      H1786   1.078       .  S
C1784      C2177   1.373       .  A
C1784      H1787   1.083       .  S
C1785      C1872   1.444       .  S
N1788      C1792   1.386       .  A
N1788      C1789   1.368       .  A
C1789      C1790   1.375       .  A
C1789      C1824   1.471       .  S
C1790      C1791   1.366       .  A
C1790      H1793   1.084       .  S
C1791      C1792   1.386       .  A
C1791      H1794   1.082   1_556  S
C1792      C1863   1.533       .  S
N1795      C1799   1.361       .  A
N1795      C1796   1.368       .  A
N1795      N1802   1.431       .  S
C1796      C2189   1.377       .  A
C1796      C1854   1.471       .  S
C1797      C1798   1.357       .  A
C1797      H1800   1.082       .  S
C1798      H1801   1.080       .  S
C1799      C2190   1.383       .  A
N1802      C1806   1.375       .  A
N1802      C1803   1.360       .  A
C1803      C1804   1.380       .  A
C1803      C1831   1.468       .  S
C1804      C1805   1.365       .  A
C1804      H1807   1.082       .  S
C1805      C1806   1.379       .  A
C1805      H1808   1.082       .  S
N1809      C1813   1.375       .  A
N1809      C1810   1.353       .  A
N1809      N1816   1.433       .  S
C1810      C2203   1.374       .  A
C1810      C1858   1.465       .  S
C1811      C1812   1.363       .  A
C1811      H1814   1.076       .  S
C1812      H1815   1.080       .  S
C1813      C2204   1.390       .  A
C1813      C1874   1.527       .  S
N1816      C1820   1.361       .  A
N1816      C1817   1.373       .  A
C1817      C1818   1.385       .  A
C1817      C1827   1.478       .  S
C1818      C1819   1.371       .  A
C1818      H1821   1.081       .  S
C1819      C1820   1.376       .  A
C1819      H1822   1.082       .  S
C1820      C1867   1.464       .  S
O1823      C1826   1.271       .  A
O1823     Cd1828   2.559       .  S
C1824      O1833   1.266       .  A
C1824      O1829   1.279       .  A
O1825      C1831   1.266       .  A
O1825     Cd1828   2.469       .  S
C1826      C1844   1.467       .  S
C1826      O1834   1.256       .  A
C1827      O1832   1.279       .  A
C1827      O1830   1.262       .  A
Cd1828     O1835   2.440       .  S
Cd1828     O1834   2.354       .  S
Cd1828     O1833   2.394       .  S
Cd1828     O1829   2.486       .  S
Cd1828     O1832   2.535       .  S
Cd1828     O1830   2.400       .  S
C1831      O1835   1.261       .  A
N1836      C1840   1.362       .  A
N1836      C1837   1.372       .  A
N1836      N1843   1.431       .  S
C1837      C1853   1.456       .  S
C1838      C2229   1.372       .  A
C1838      C1839   1.351       .  A
C1838      H1841   1.083       .  S
C1839      C2232   1.389       .  A
C1839      H1842   1.082       .  S
N1843      C1847   1.384       .  A
N1843      C1844   1.371       .  A
C1844      C1845   1.372       .  A
C1845      C1846   1.353       .  A
C1845      H1848   1.081       .  S
C1846      C1847   1.383       .  A
C1846      H1849   1.084       .  S
O1850      C1853   1.269       .  A
C1851      O1856   1.270       .  A
O1852      C1858   1.264       .  A
O1852     Cd1855   2.437       .  S
C1854      O1859   1.268       .  A
C1854      O2249   1.260       .  A
Cd1855     O2242   2.438       .  S
Cd1855     O2254   2.406       .  S
Cd1855     O1861   2.388       .  S
Cd1855     O1860   2.403       .  S
Cd1855     O2248   2.475       .  S
Cd1855     O1859   2.533       .  S
Cd1855     O2249   2.391       .  S
C1858      O2254   1.258       .  A
O1860      C2243   1.266       .  A
O1861      C2245   1.261       .  A
C1864      C1865   1.419       .  A
C1864      C1890   1.462       .  S
C1865      H1870   1.081       .  S
C1866      C1904   1.537       .  S
C1867      C1868   1.418       .  A
C1868      H1869   1.083       .  S
C1871      C1883   1.527       .  S
C1873      C2068   1.409       .  A
C1873      C1874   1.410       .  A
C1873      H1878   1.081       .  S
C1875      C1876   1.411       .  A
C1875      C1897   1.454       .  S
C1876      C2067   1.411       .  A
N1879      C1883   1.384       .  A
N1879      C1880   1.358       .  A
N1879      N1886   1.436       .  S
C1880      C1952   1.469       .  S
C1881      C2272   1.371       .  A
C1881      C1882   1.355       .  A
C1881      H1884   1.064       .  S
C1882      C2275   1.385       .  A
C1882      H1885   1.080   1_556  S
N1886      C1890   1.361       .  A
N1886      C1887   1.374       .  A
C1887      C1888   1.385       .  A
C1887      C1938   1.473       .  S
C1888      C1889   1.369   1_655  A
C1888      H1891   1.081       .  S
C1889      C1890   1.376   1_455  A
C1889      H1892   1.083       .  S
N1893      C1897   1.364       .  A
N1893      C1894   1.374       .  A
N1893      N1900   1.438       .  S
C1894      C2287   1.380       .  A
C1894      C1949   1.467       .  S
C1895      C1896   1.358   1_655  A
C1895      H1898   1.079       .  S
C1896      H1899   1.083       .  S
C1897      C2288   1.374   1_655  A
N1900      C1904   1.385       .  A
N1900      C1901   1.366       .  A
C1901      C1902   1.375       .  A
C1901      C1939   1.476       .  S
C1902      C1903   1.368       .  A
C1902      H1905   1.083       .  S
C1903      C1904   1.389       .  A
C1903      H1906   1.078       .  S
N1907      C1911   1.374       .  A
N1907      C1908   1.364       .  A
N1907      N1914   1.429       .  S
C1908      C1956   1.483       .  S
C1909      C2300   1.378       .  A
C1909      C1910   1.370       .  A
C1909      H1912   1.080       .  S
C1910      C2303   1.382       .  A
C1910      H1913   1.082       .  S
N1914      C1918   1.366       .  A
N1914      C1915   1.371       .  A
C1915      C1916   1.378       .  A
C1915      C1936   1.471       .  S
C1916      C1917   1.357       .  A
C1916      H1919   1.082       .  S
C1917      C1918   1.373       .  A
C1917      H1920   1.075       .  S
N1921      C1925   1.372       .  A
N1921      C1922   1.369       .  A
N1921      N1928   1.437       .  S
C1922      C2315   1.372       .  A
C1922      C1951   1.449       .  S
C1923      C1924   1.345       .  A
C1923      H1926   1.084       .  S
C1924      H1927   1.083       .  S
C1925      C2316   1.383       .  A
N1928      C1932   1.380       .  A
N1928      C1929   1.369       .  A
C1929      C1930   1.370       .  A
C1929      C1943   1.497       .  S
C1930      C1931   1.346       .  A
C1930      H1933   1.073       .  S
C1931      C1932   1.385       .  A
C1931      H1934   1.081   1_556  S
O1935      C1938   1.266       .  A
O1935     Cd1940   2.406       .  S
C1936      O1945   1.260       .  A
C1936      O1941   1.266       .  A
O1937      C1943   1.255       .  A
O1937     Cd1940   2.381       .  S
C1938      O1946   1.278       .  A
C1939      O1944   1.275       .  A
C1939      O1942   1.265       .  A
Cd1940     O1947   2.634       .  S
Cd1940     O1946   2.537       .  S
Cd1940     O1945   2.425       .  S
Cd1940     O1941   2.497       .  S
Cd1940     O1944   2.500       .  S
Cd1940     O1942   2.442       .  S
C1943      O1947   1.273       .  A
O1948      C1951   1.263       .  A
O1948     Cd1953   2.340       .  S
C1949      O2350   1.277       .  A
C1949      O1954   1.272       .  A
O1950      C1956   1.272       .  A
C1951      O2351   1.278       .  A
C1952      O1957   1.263       .  A
Cd1953     O2342   2.507       .  S
Cd1953     O1960   2.427       .  S
Cd1953     O2351   2.418       .  S
Cd1953     O2350   2.464       .  S
Cd1953     O1954   2.398       .  S
Cd1953     O2349   2.431       .  S
Cd1953     O1955   2.441       .  S
O1955      C2344   1.272       .  A
O1960      C2348   1.268       .  A
C1961      C1962   1.422       .  A
C1961      C2036   1.489       .  S
C1962      C1963   1.410       .  A
C1962      C2107   1.480       .  S
C1963      H1968   1.085       .  S
C1964      C1965   1.400       .  A
C1964      C2121   1.460       .  S
C1965      C1966   1.388   1_565  A
C1965      C1995   1.464       .  S
C1966      H1967   1.085       .  S
C1969      C1970   1.422       .  A
C1969      C2170   1.419       .  A
C1969      C2128   1.513       .  S
C1970      C2167   1.419       .  A
C1970      C2002   1.494       .  S
C1971      C2166   1.419       .  A
C1971      C1972   1.420   1_556  A
C1971      H1976   1.084       .  S
C1972      C1973   1.416       .  A
C1972      C2043   1.493       .  S
C1973      C1974   1.404       .  A
C1973      C2114   1.489       .  S
C1974      C2165   1.419   1_554  A
C1974      H1975   1.082       .  S
N1977      C1981   1.360       .  A
N1977      C1978   1.371       .  A
N1977      N1984   1.437       .  S
C1978      C2047   1.458       .  S
C1979      C1980   1.356   1_545  A
C1979      H1982   1.078   1_545  S
C1980      H1983   1.083       .  S
C1981      C2068   1.444       .  S
N1984      C1988   1.386       .  A
N1984      C1985   1.368       .  A
C1985      C1986   1.375       .  A
C1985      C2020   1.471       .  S
C1986      C1987   1.366       .  A
C1986      H1989   1.084       .  S
C1987      C1988   1.386       .  A
C1987      H1990   1.081       .  S
C1988      C2059   1.534       .  S
N1991      C1995   1.361       .  A
N1991      C1992   1.368       .  A
N1991      N1998   1.431       .  S
C1992      C2050   1.471       .  S
C1993      C1994   1.357       .  A
C1993      H1996   1.082       .  S
C1994      H1997   1.080       .  S
N1998      C2002   1.375       .  A
N1998      C1999   1.360       .  A
C1999      C2000   1.380       .  A
C1999      C2027   1.468       .  S
C2000      C2001   1.365       .  A
C2000      H2003   1.082       .  S
C2001      C2002   1.379       .  A
C2001      H2004   1.082       .  S
N2005      C2009   1.375       .  A
N2005      C2006   1.353       .  A
N2005      N2012   1.432       .  S
C2006      C2054   1.465       .  S
C2007      C2008   1.363       .  A
C2007      H2010   1.076       .  S
C2008      H2011   1.079   1_554  S
C2009      C2070   1.526       .  S
N2012      C2016   1.361       .  A
N2012      C2013   1.373       .  A
C2013      C2014   1.385       .  A
C2013      C2023   1.478       .  S
C2014      C2015   1.371       .  A
C2014      H2017   1.081       .  S
C2015      C2016   1.376       .  A
C2015      H2018   1.083       .  S
C2016      C2063   1.464       .  S
O2019      C2022   1.272       .  A
O2019     Cd2024   2.559       .  S
C2020      O2029   1.265       .  A
C2020      O2025   1.279       .  A
O2021      C2027   1.266       .  A
O2021     Cd2024   2.469       .  S
C2022      C2040   1.467       .  S
C2022      O2030   1.256       .  A
C2023      O2028   1.279       .  A
C2023      O2026   1.262       .  A
Cd2024     O2031   2.440       .  S
Cd2024     O2030   2.354       .  S
Cd2024     O2029   2.394       .  S
Cd2024     O2025   2.486       .  S
Cd2024     O2028   2.535       .  S
Cd2024     O2026   2.400       .  S
C2027      O2031   1.261       .  A
N2032      C2036   1.362       .  A
N2032      C2033   1.372       .  A
N2032      N2039   1.431       .  S
C2033      C2049   1.456       .  S
C2034      C2035   1.351       .  A
C2034      H2037   1.084       .  S
C2035      H2038   1.082   1_545  S
N2039      C2043   1.383       .  A
N2039      C2040   1.371       .  A
C2040      C2041   1.372       .  A
C2041      C2042   1.353       .  A
C2041      H2044   1.081       .  S
C2042      C2043   1.383       .  A
C2042      H2045   1.084       .  S
O2046      C2049   1.269       .  A
C2047      O2052   1.270       .  A
O2048      C2054   1.264       .  A
O2048     Cd2051   2.437       .  S
C2050      O2055   1.268       .  A
Cd2051     O2057   2.388   1_565  S
Cd2051     O2056   2.402       .  S
Cd2051     O2055   2.533       .  S
C2059      C2260   1.416       .  A
C2060      C2061   1.419       .  A
C2060      C2086   1.462       .  S
C2061      C2258   1.420       .  A
C2061      H2066   1.081       .  S
C2062      C2257   1.420   1_554  A
C2062      C2100   1.537       .  S
C2063      C2064   1.418       .  A
C2064      C2255   1.416   1_554  A
C2064      H2065   1.083       .  S
C2067      C2079   1.527       .  S
C2069      C2070   1.410   1_556  A
C2069      H2074   1.081       .  S
C2071      C2072   1.411   1_565  A
C2071      C2093   1.454       .  S
C2072      H2269   1.082       .  S
H2073      C2268   1.082       .  S
N2075      C2079   1.384       .  A
N2075      C2076   1.357       .  A
N2075      N2082   1.436       .  S
C2076      C2148   1.469       .  S
C2077      C2078   1.356       .  A
C2077      H2080   1.064       .  S
C2078      H2081   1.080       .  S
N2082      C2086   1.361       .  A
N2082      C2083   1.374       .  A
C2083      C2084   1.385       .  A
C2083      C2134   1.473       .  S
C2084      C2085   1.369   1_655  A
C2084      H2087   1.081       .  S
C2085      C2086   1.376   1_455  A
C2085      H2088   1.083       .  S
N2089      C2093   1.364       .  A
N2089      C2090   1.374       .  A
N2089      N2096   1.438       .  S
C2090      C2145   1.467       .  S
C2091      C2092   1.358   1_655  A
C2091      H2094   1.079       .  S
C2092      H2095   1.083       .  S
N2096      C2100   1.385       .  A
N2096      C2097   1.366       .  A
C2097      C2098   1.375       .  A
C2097      C2135   1.476       .  S
C2098      C2099   1.368       .  A
C2098      H2101   1.083       .  S
C2099      C2100   1.389       .  A
C2099      H2102   1.078   1_554  S
N2103      C2107   1.374       .  A
N2103      C2104   1.364       .  A
N2103      N2110   1.429       .  S
C2104      C2152   1.483       .  S
C2105      C2106   1.370       .  A
C2105      H2108   1.080       .  S
C2106      H2109   1.082       .  S
N2110      C2114   1.367       .  A
N2110      C2111   1.371       .  A
C2111      C2112   1.378       .  A
C2111      C2132   1.471       .  S
C2112      C2113   1.357       .  A
C2112      H2115   1.082       .  S
C2113      C2114   1.373       .  A
C2113      H2116   1.075       .  S
N2117      C2121   1.372       .  A
N2117      C2118   1.369       .  A
N2117      N2124   1.437       .  S
C2118      C2147   1.448       .  S
C2119      C2120   1.345       .  A
C2119      H2122   1.084       .  S
C2120      H2123   1.083       .  S
N2124      C2128   1.380       .  A
N2124      C2125   1.369       .  A
C2125      C2126   1.370       .  A
C2125      C2139   1.497       .  S
C2126      C2127   1.346       .  A
C2126      H2129   1.073       .  S
C2127      C2128   1.385       .  A
C2127      H2130   1.081       .  S
O2131      C2134   1.266       .  A
O2131     Cd2136   2.407       .  S
C2132      O2141   1.260       .  A
C2132      O2137   1.266       .  A
O2133      C2139   1.255       .  A
O2133     Cd2136   2.381       .  S
C2134      O2142   1.278       .  A
C2135      O2140   1.274       .  A
C2135      O2138   1.265       .  A
Cd2136     O2143   2.634       .  S
Cd2136     O2142   2.537       .  S
Cd2136     O2141   2.425       .  S
Cd2136     O2137   2.497       .  S
Cd2136     O2140   2.501       .  S
Cd2136     O2138   2.442       .  S
C2139      O2143   1.273       .  A
O2144      C2147   1.263   1_545  A
O2144     Cd2149   2.340   1_545  S
C2145      O2150   1.272   1_565  A
O2146      C2152   1.272       .  A
C2148      O2153   1.263       .  A
Cd2149     O2156   2.426       .  S
Cd2149     O2150   2.398   1_565  S
Cd2149     O2151   2.441   1_565  S
C2157      C2158   1.422       .  A
C2157      C2232   1.489       .  S
C2158      C2159   1.410       .  A
C2158      C2303   1.480       .  S
C2159      H2164   1.085       .  S
C2160      C2161   1.400       .  A
C2160      C2317   1.460       .  S
C2161      C2162   1.388   1_565  A
C2161      C2191   1.464       .  S
C2162      H2163   1.085       .  S
C2165      C2166   1.422       .  A
C2165      C2324   1.513       .  S
C2166      C2198   1.494       .  S
C2167      C2168   1.420       .  A
C2167      H2172   1.085       .  S
C2168      C2169   1.416       .  A
C2168      C2239   1.493       .  S
C2169      C2170   1.404       .  A
C2169      C2310   1.489       .  S
C2170      H2171   1.082       .  S
N2173      C2177   1.360       .  A
N2173      C2174   1.371       .  A
N2173      N2180   1.437       .  S
C2174      C2243   1.458       .  S
C2175      C2176   1.356   1_545  A
C2175      H2178   1.078   1_545  S
C2176      H2179   1.083       .  S
C2177      C2264   1.444       .  S
N2180      C2184   1.386       .  A
N2180      C2181   1.368       .  A
C2181      C2182   1.375       .  A
C2181      C2216   1.471       .  S
C2182      C2183   1.366       .  A
C2182      H2185   1.084       .  S
C2183      C2184   1.386       .  A
C2183      H2186   1.082   1_556  S
C2184      C2255   1.534       .  S
N2187      C2191   1.361       .  A
N2187      C2188   1.368       .  A
N2187      N2194   1.431       .  S
C2188      C2246   1.471       .  S
C2189      C2190   1.357       .  A
C2189      H2192   1.082       .  S
C2190      H2193   1.080       .  S
N2194      C2198   1.375       .  A
N2194      C2195   1.360       .  A
C2195      C2196   1.380       .  A
C2195      C2223   1.468       .  S
C2196      C2197   1.365       .  A
C2196      H2199   1.082       .  S
C2197      C2198   1.379       .  A
C2197      H2200   1.082       .  S
N2201      C2205   1.375       .  A
N2201      C2202   1.353       .  A
N2201      N2208   1.432       .  S
C2202      C2250   1.465       .  S
C2203      C2204   1.363       .  A
C2203      H2206   1.076       .  S
C2204      H2207   1.079       .  S
C2205      C2266   1.526       .  S
N2208      C2212   1.361       .  A
N2208      C2209   1.373       .  A
C2209      C2210   1.385       .  A
C2209      C2219   1.478       .  S
C2210      C2211   1.371       .  A
C2210      H2213   1.081       .  S
C2211      C2212   1.376       .  A
C2211      H2214   1.082       .  S
C2212      C2259   1.464       .  S
O2215      C2218   1.272       .  A
O2215     Cd2220   2.559       .  S
C2216      O2225   1.265       .  A
C2216      O2221   1.279       .  A
O2217      C2223   1.266       .  A
O2217     Cd2220   2.469       .  S
C2218      C2236   1.467       .  S
C2218      O2226   1.256       .  A
C2219      O2224   1.279       .  A
C2219      O2222   1.262       .  A
Cd2220     O2227   2.440       .  S
Cd2220     O2226   2.354       .  S
Cd2220     O2225   2.394       .  S
Cd2220     O2221   2.486       .  S
Cd2220     O2224   2.535       .  S
Cd2220     O2222   2.400       .  S
C2223      O2227   1.261       .  A
N2228      C2232   1.362       .  A
N2228      C2229   1.372       .  A
N2228      N2235   1.431       .  S
C2229      C2245   1.456       .  S
C2230      C2231   1.351       .  A
C2230      H2233   1.083       .  S
C2231      H2234   1.082   1_545  S
N2235      C2239   1.383       .  A
N2235      C2236   1.371       .  A
C2236      C2237   1.372       .  A
C2237      C2238   1.353       .  A
C2237      H2240   1.081       .  S
C2238      C2239   1.383       .  A
C2238      H2241   1.084       .  S
O2242      C2245   1.269       .  A
C2243      O2248   1.270       .  A
O2244      C2250   1.264       .  A
O2244     Cd2247   2.437       .  S
C2246      O2251   1.268       .  A
Cd2247     O2253   2.388   1_565  S
Cd2247     O2252   2.402       .  S
Cd2247     O2251   2.533       .  S
C2256      C2257   1.419       .  A
C2256      C2282   1.462       .  S
C2257      H2262   1.081       .  S
C2258      C2296   1.537       .  S
C2259      C2260   1.418       .  A
C2260      H2261   1.083       .  S
C2263      C2275   1.527       .  S
C2265      C2266   1.410       .  A
C2265      H2270   1.081       .  S
C2267      C2268   1.411   1_565  A
C2267      C2289   1.454       .  S
N2271      C2275   1.384       .  A
N2271      C2272   1.357       .  A
N2271      N2278   1.436       .  S
C2272      C2344   1.469       .  S
C2273      C2274   1.356       .  A
C2273      H2276   1.064       .  S
C2274      H2277   1.080   1_556  S
N2278      C2282   1.361       .  A
N2278      C2279   1.374       .  A
C2279      C2280   1.385       .  A
C2279      C2330   1.473       .  S
C2280      C2281   1.369   1_655  A
C2280      H2283   1.081       .  S
C2281      C2282   1.376   1_455  A
C2281      H2284   1.083       .  S
N2285      C2289   1.364       .  A
N2285      C2286   1.374       .  A
N2285      N2292   1.438       .  S
C2286      C2341   1.467       .  S
C2287      C2288   1.358   1_655  A
C2287      H2290   1.079       .  S
C2288      H2291   1.083       .  S
N2292      C2296   1.385       .  A
N2292      C2293   1.366       .  A
C2293      C2294   1.375       .  A
C2293      C2331   1.476       .  S
C2294      C2295   1.368       .  A
C2294      H2297   1.083       .  S
C2295      C2296   1.389       .  A
C2295      H2298   1.078       .  S
N2299      C2303   1.374       .  A
N2299      C2300   1.364       .  A
N2299      N2306   1.429       .  S
C2300      C2348   1.483       .  S
C2301      C2302   1.370       .  A
C2301      H2304   1.080       .  S
C2302      H2305   1.082       .  S
N2306      C2310   1.367       .  A
N2306      C2307   1.371       .  A
C2307      C2308   1.378       .  A
C2307      C2328   1.471       .  S
C2308      C2309   1.357       .  A
C2308      H2311   1.082       .  S
C2309      C2310   1.373       .  A
C2309      H2312   1.075       .  S
N2313      C2317   1.372       .  A
N2313      C2314   1.369       .  A
N2313      N2320   1.437       .  S
C2314      C2343   1.448       .  S
C2315      C2316   1.345       .  A
C2315      H2318   1.084       .  S
C2316      H2319   1.083       .  S
N2320      C2324   1.380       .  A
N2320      C2321   1.369       .  A
C2321      C2322   1.370       .  A
C2321      C2335   1.497       .  S
C2322      C2323   1.346       .  A
C2322      H2325   1.073       .  S
C2323      C2324   1.385       .  A
C2323      H2326   1.081   1_556  S
O2327      C2330   1.266       .  A
O2327     Cd2332   2.407       .  S
C2328      O2337   1.260       .  A
C2328      O2333   1.266       .  A
O2329      C2335   1.255       .  A
O2329     Cd2332   2.381       .  S
C2330      O2338   1.278       .  A
C2331      O2336   1.274       .  A
C2331      O2334   1.265       .  A
Cd2332     O2339   2.634       .  S
Cd2332     O2338   2.537       .  S
Cd2332     O2337   2.425       .  S
Cd2332     O2333   2.497       .  S
Cd2332     O2336   2.501       .  S
Cd2332     O2334   2.442       .  S
C2335      O2339   1.273       .  A
O2340      C2343   1.263   1_545  A
O2340     Cd2345   2.340   1_545  S
C2341      O2346   1.272   1_565  A
O2342      C2348   1.272       .  A
C2344      O2349   1.263       .  A
Cd2345     O2352   2.426       .  S
Cd2345     O2346   2.398   1_565  S
Cd2345     O2347   2.441   1_565  S
