geometry optimzed in LAMMPS
_audit_creation_date              2020-11-30 
_audit_creation_method            'lammps2cif' 
_symmetry_space_group_name_H-M    'P1' 
_symmetry_Int_Tables_number       1 
_symmetry_cell_setting            triclinic 
loop_ 
_symmetry_equiv_pos_as_xyz 
  x,y,z 
_cell_length_a                    45.23881048576924 
_cell_length_b                    45.619027174826584 
_cell_length_c                    45.39338625244983 
_cell_angle_alpha                 88.62954130204919 
_cell_angle_beta                  90.45475183011001 
_cell_angle_gamma                 89.13596796260948 
loop_ 
_atom_site_label 
_atom_site_type_symbol 
_atom_site_fract_x 
_atom_site_fract_y 
_atom_site_fract_z 
_atom_site_charge 
C1          C  0.24926283  0.37554174  0.50222731     0.03510
C2          C  0.22260966  0.36137090  0.49561758    -0.12640
C3          C  0.22240457  0.33104144  0.99193974     0.01010
C4          C  0.24884297  0.31512980  0.99449838    -0.11160
C5          C  0.27533828  0.32800490  0.00384014     0.03500
C6          C  0.27518674  0.35856909  0.50782896    -0.10580
H7          H  0.20208574  0.37376880  0.49319250     0.09100
H8          H  0.24812310  0.29185331  0.99073806     0.06630
H9          H  0.29467176  0.36922983  0.51574568     0.06470
C10         C  0.41148707  0.21021052  0.99850105     0.03510
C11         C  0.39300794  0.23503043  0.00301894    -0.12760
C12         C  0.36212861  0.23182304  0.00789633     0.01010
C13         C  0.35271960  0.20289726  0.01238357    -0.11160
C14         C  0.36906906  0.17911692  0.00234102     0.03500
C15         C  0.39859515  0.18267962  0.99536278    -0.10580
H16         H  0.40327349  0.25617829  0.00388460     0.09100
H17         H  0.33213609  0.19786327  0.02227316     0.06630
H18         H  0.41155927  0.16396636  0.98839529     0.06470
C19         C  0.25093369  0.05187565  0.99943622     0.03510
C20         C  0.27771617  0.06640520  0.99490133    -0.12640
C21         C  0.27858028  0.09698489  0.99479667     0.01010
C22         C  0.25273294  0.11320253  0.00011890    -0.11160
C23         C  0.22587331  0.09912955  0.00510287     0.03500
C24         C  0.22489446  0.06840897  0.00421124    -0.10580
H25         H  0.29793555  0.05404494  0.99117674     0.09100
H26         H  0.25354559  0.13693665  0.00044076     0.06630
H27         H  0.20406913  0.05751080  0.00779948     0.06470
C28         C  0.08936444  0.21547760  0.00110812     0.03510
C29         C  0.10443496  0.24203991  0.99685725    -0.12640
C30         C  0.13542891  0.24222910  0.99639381     0.01010
C31         C  0.15131474  0.21569966  0.99904151    -0.11160
C32         C  0.13672987  0.18903622  0.00334193     0.03500
C33         C  0.10579889  0.18918156  0.00515428    -0.10580
H34         H  0.09221680  0.26254404  0.99413215     0.09100
H35         H  0.17526896  0.21588687  0.99827270     0.06630
H36         H  0.09455695  0.16890666  0.01002325     0.06470
C37         C  0.00022387  0.21071221  0.41131119     0.03510
C38         C  0.99824116  0.18373392  0.39702337    -0.12640
C39         C  0.99616285  0.18304985  0.36622989     0.01010
C40         C  0.99645308  0.20942213  0.34976183    -0.11160
C41         C  0.99919643  0.23635232  0.36360174     0.03500
C42         C  0.00131181  0.23689876  0.39435606    -0.10580
H43         H  0.99883385  0.16334092  0.40972473     0.09100
H44         H  0.99543196  0.20891044  0.32589601     0.06630
H45         H  0.00446979  0.25761718  0.40499746     0.06470
C46         C  0.49955754  0.37388032  0.24876913     0.03510
C47         C  0.50157247  0.35685064  0.27505564    -0.12640
C48         C  0.50404036  0.32619851  0.27405828     0.01010
C49         C  0.50349403  0.31255133  0.24678659    -0.11160
C50         C  0.50120147  0.32911371  0.22057019     0.03500
C51         C  0.49948165  0.35973637  0.22150118    -0.10580
H52         H  0.50193719  0.36732323  0.29622576     0.09100
H53         H  0.50503941  0.28883559  0.24593218     0.06630
H54         H  0.49821665  0.37238847  0.20101305     0.06470
C55         C  0.00089763  0.21686876  0.08826837     0.03510
C56         C  0.00492298  0.24423052  0.10121197    -0.12640
C57         C  0.01146697  0.24563814  0.13113959     0.01010
C58         C  0.01477966  0.21973316  0.14783404    -0.11160
C59         C  0.00452239  0.19295292  0.13727667     0.03500
C60         C  0.99887487  0.19145348  0.10662676    -0.10580
H61         H  0.00323472  0.26439090  0.08815616     0.09100
H62         H  0.02246593  0.22134908  0.17026557     0.06630
H63         H  0.99267652  0.17102844  0.09690086     0.06470
C64         C  0.50182969  0.05024718  0.25314488     0.03510
C65         C  0.50325543  0.06800339  0.22715821    -0.12640
C66         C  0.49613406  0.09838471  0.22756718     0.01010
C67         C  0.48746784  0.10944120  0.25512881    -0.11160
C68         C  0.49275574  0.09369361  0.28132481     0.03500
C69         C  0.49864521  0.06372389  0.28045949    -0.10580
H70         H  0.51014672  0.05765052  0.20740509     0.09100
H71         H  0.47872710  0.13145844  0.25722768     0.06630
H72         H  0.50097411  0.05116809  0.30092992     0.06470
C73         C  0.25130934  0.46275138  0.41246389     0.03510
C74         C  0.22540591  0.45580639  0.39690264    -0.12640
C75         C  0.22563841  0.45416320  0.36614328     0.01010
C76         C  0.25160467  0.46028595  0.35076692    -0.11160
C77         C  0.27713586  0.46880893  0.36573447     0.03500
C78         C  0.27720509  0.46922799  0.39666116    -0.10580
H79         H  0.20512148  0.45132740  0.40861002     0.09100
H80         H  0.25172239  0.45904591  0.32694061     0.06630
H81         H  0.29721095  0.47508353  0.40825686     0.06470
C82         C  0.41180737  0.46829281  0.25236301     0.03510
C83         C  0.39803736  0.47709832  0.27853768    -0.12640
C84         C  0.36723819  0.47981274  0.27988775     0.01010
C85         C  0.35072100  0.47677697  0.25402226    -0.11160
C86         C  0.36321848  0.46447497  0.22883257     0.03500
C87         C  0.39420562  0.46108598  0.22783937    -0.10580
H88         H  0.41119211  0.48160548  0.29785743     0.09100
H89         H  0.32722524  0.48129149  0.25456004     0.06630
H90         H  0.40459270  0.45211578  0.20856623     0.06470
C91         C  0.24877208  0.46186315  0.08975870     0.03510
C92         C  0.27482143  0.45916604  0.10711822    -0.12640
C93         C  0.27383500  0.44851962  0.13675566     0.01010
C94         C  0.24551221  0.44048352  0.14697301    -0.11160
C95         C  0.21979115  0.45063019  0.13273302     0.03500
C96         C  0.22128812  0.46067366  0.10368571    -0.10580
H97         H  0.29499345  0.46561189  0.09692449     0.09100
H98         H  0.24228782  0.42856840  0.16743056     0.06630
H99         H  0.20126750  0.46741771  0.09201931     0.06470
C100        C  0.08939495  0.45644466  0.25102302     0.03510
C101        C  0.10498101  0.45169310  0.27775765    -0.12640
C102        C  0.13594790  0.45083119  0.27817937     0.01010
C103        C  0.15124647  0.45319193  0.25159150    -0.11160
C104        C  0.13611168  0.45833260  0.22486967     0.03500
C105        C  0.10516983  0.45968838  0.22461987    -0.10580
H106        H  0.09311731  0.44874999  0.29820121     0.09100
H107        H  0.17519281  0.45186706  0.25180921     0.06630
H108        H  0.09352055  0.46366419  0.20392641     0.06470
O109        O  0.49913603  0.42163257  0.22609924    -0.71400
O110        O  0.50167056  0.00478916  0.22784092    -0.71610
O111        O  0.04230737  0.46117311  0.22692509    -0.71470
O112        O  0.45818437  0.46501905  0.22734460    -0.71480
O113        O  0.45921735  0.46383834  0.27519188    -0.71440
O114        O  0.04272559  0.45803352  0.27472795    -0.71460
O115        O  0.50316168  0.00240092  0.27564910    -0.71400
O116        O  0.49896679  0.41936685  0.27392027    -0.71590
V117        V  0.50032237  0.46310995  0.22795541     1.35240
V118        V  0.50097705  0.46095486  0.27391697     1.35170
C119        C  0.49895951  0.40627936  0.24965955     0.77840
C120        C  0.50279726  0.01782275  0.25208983     0.77900
C121        C  0.05681578  0.45861066  0.25083265     0.77770
C122        C  0.44438512  0.46545955  0.25149157     0.77730
O123        O  0.27395865  0.46369946  0.04358045    -0.71400
O124        O  0.27490790  0.46301625  0.45980290    -0.71610
O125        O  0.27451326  0.00481899  0.00034392    -0.71470
O126        O  0.27404444  0.42152783  0.00311908    -0.71480
O127        O  0.22605876  0.42280237  0.00184188    -0.71440
O128        O  0.22650792  0.00592220  0.99953180    -0.71460
O129        O  0.22690825  0.46402442  0.45885258    -0.71400
O130        O  0.22596918  0.46471809  0.04234235    -0.71590
V131        V  0.27344377  0.46329097  0.00167624     1.35240
V132        V  0.22731865  0.46434559  0.00066681     1.35170
C133        C  0.24972488  0.46419562  0.05725217     0.77840
C134        C  0.25106961  0.46335856  0.44503134     0.77900
C135        C  0.25059046  0.01955888  0.99970844     0.77770
C136        C  0.24986567  0.40792521  0.00276140     0.77730
O137        O  0.45959498  0.18873335  0.99954372    -0.71400
O138        O  0.04319365  0.19084493  0.00262718    -0.71610
O139        O  0.50002993  0.19102373  0.04298755    -0.71470
O140        O  0.00241178  0.18840019  0.45941957    -0.71480
O141        O  0.99950321  0.23593873  0.45667817    -0.71440
O142        O  0.99903303  0.23859585  0.04003588    -0.71460
O143        O  0.04133478  0.23836089  0.99884558    -0.71400
O144        O  0.45718170  0.23631082  0.99782935    -0.71590
V145        V  0.00127367  0.19067996  0.00109742     1.35240
V146        V  0.99931735  0.23638558  0.99841490     1.35170
C147        C  0.44406913  0.21201954  0.99828000     0.77840
C148        C  0.05662842  0.21493272  0.00098658     0.77900
C149        C  0.99946450  0.21533615  0.05578872     0.77770
C150        C  0.00094214  0.21169905  0.44379186     0.77730
C151        C  0.14816549  0.44201357  0.17463558    -0.05400
C152        C  0.15312308  0.46187091  0.19734828     0.00530
C153        C  0.17685111  0.48171997  0.19505034    -0.08040
C154        C  0.19718989  0.47808261  0.17239272    -0.05420
C155        C  0.19375767  0.45651697  0.15119365     0.00520
C156        C  0.16813614  0.43923628  0.15115319    -0.07950
C157        C  0.16262882  0.41741974  0.12713949     0.62430
H158        H  0.12951387  0.42748459  0.17636995     0.13120
H159        H  0.21666870  0.49168050  0.17174671     0.13130
C160        C  0.18237101  0.50624794  0.21640310     0.62660
F161        F  0.13690149  0.40201205  0.13187158    -0.22510
F162        F  0.18593174  0.39752289  0.12603939    -0.19830
F163        F  0.15993344  0.43214623  0.10026354    -0.19510
F164        F  0.20596513  0.49852053  0.23469945    -0.19560
F165        F  0.15797194  0.51254221  0.23339870    -0.19890
F166        F  0.18929323  0.53164670  0.20083284    -0.22560
C167        C  0.35089634  0.45750310  0.17493754    -0.05400
C168        C  0.34307497  0.45444644  0.20476893     0.00530
C169        C  0.31455269  0.44393187  0.21110282    -0.08040
C170        C  0.29305501  0.44581369  0.18906017    -0.05420
C171        C  0.29986299  0.44839765  0.15866660     0.00520
C172        C  0.33068353  0.45149041  0.15182025    -0.07950
C173        C  0.34387641  0.44727995  0.12156363     0.62430
H174        H  0.37310815  0.46415192  0.16951340     0.13120
H175        H  0.27081513  0.44445529  0.19702443     0.13130
C176        C  0.30559090  0.42914750  0.24006670     0.62660
F177        F  0.37281657  0.43707646  0.12400745    -0.22510
F178        F  0.34415373  0.47377903  0.10611512    -0.19830
F179        F  0.32852388  0.42652948  0.10612258    -0.19510
F180        F  0.28652661  0.44727789  0.25520649    -0.19560
F181        F  0.32961380  0.42151094  0.25777394    -0.19890
F182        F  0.29098355  0.40347323  0.23413183    -0.22560
C183        C  0.32897025  0.50370642  0.31011315    -0.05400
C184        C  0.35077948  0.48157962  0.30813194     0.00530
C185        C  0.35085219  0.45774601  0.32898214    -0.08040
C186        C  0.32732985  0.45557931  0.34903268    -0.05420
C187        C  0.30393051  0.47600233  0.34859945     0.00520
C188        C  0.30530418  0.50122986  0.32990158    -0.07950
C189        C  0.28138462  0.52494493  0.33014083     0.62430
H190        H  0.32925685  0.52178020  0.29420135     0.13120
H191        H  0.32602832  0.43689161  0.36411131     0.13130
C192        C  0.37461818  0.43379675  0.32932134     0.62660
F193        F  0.28927108  0.54944661  0.31359869    -0.22510
F194        F  0.27655508  0.53356924  0.35872999    -0.19830
F195        F  0.25536960  0.51450725  0.31851290    -0.19510
F196        F  0.40164754  0.44565736  0.33624196    -0.19560
F197        F  0.37616941  0.42086267  0.30213218    -0.19890
F198        F  0.36904660  0.41194064  0.35014142    -0.22560
C199        C  0.17757201  0.47190759  0.34706329    -0.05400
C200        C  0.19825919  0.44876261  0.34932432     0.00530
C201        C  0.19486194  0.42389164  0.33159021    -0.08040
C202        C  0.17249707  0.42445228  0.30997876    -0.05420
C203        C  0.15328596  0.44868771  0.30599649     0.00520
C204        C  0.15506385  0.47246589  0.32548830    -0.07950
C205        C  0.13467276  0.99916471  0.32240824     0.62430
H206        H  0.18054061  0.49057333  0.36104075     0.13120
H207        H  0.17085816  0.40629101  0.29508385     0.13130
C208        C  0.21459054  0.39672230  0.33388835     0.62660
F209        F  0.14199329  0.02066298  0.34209482    -0.22510
F210        F  0.10588038  0.49114775  0.32791814    -0.19830
F211        F  0.13642546  0.01123251  0.29425747    -0.19510
F212        F  0.19717041  0.37217638  0.33695496    -0.19560
F213        F  0.23378537  0.39689017  0.35772564    -0.19890
F214        F  0.23092671  0.39446248  0.30839756    -0.22560
C215        C  0.00272276  0.14982926  0.20917050    -0.05400
C216        C  0.49933903  0.12018552  0.20167250     0.00530
C217        C  0.49701599  0.11448556  0.17071095    -0.08040
C218        C  0.50030864  0.13825923  0.15010237    -0.05420
C219        C  0.99962932  0.16774429  0.15887807     0.00520
C220        C  0.99587206  0.17259072  0.18932582    -0.07950
C221        C  0.98018343  0.19910393  0.20217521     0.62430
H222        H  0.00714883  0.15613399  0.23153272     0.13120
H223        H  0.50274592  0.13361138  0.12702976     0.13130
C224        C  0.49109859  0.08450584  0.15832814     0.62660
F225        F  0.45899726  0.18961506  0.22194229    -0.22510
F226        F  0.46549963  0.21596588  0.18085153    -0.19830
F227        F  0.00009837  0.21608160  0.21721740    -0.19510
F228        F  0.46925226  0.07051364  0.17421765    -0.19560
F229        F  0.01689139  0.06785399  0.15866972    -0.19890
F230        F  0.98126087  0.08672272  0.12936930    -0.22560
C231        C  0.48034348  0.27940229  0.15879668    -0.05400
C232        C  0.50832500  0.27326185  0.14714747     0.00530
C233        C  0.03293182  0.28965865  0.15591270    -0.08040
C234        C  0.02927575  0.30996050  0.17852727    -0.05420
C235        C  0.50188334  0.31367918  0.19240553     0.00520
C236        C  0.47672702  0.29911876  0.18178360    -0.07950
C237        C  0.44656756  0.30338794  0.19564762     0.62430
H238        H  0.46173536  0.26677992  0.15135925     0.13120
H239        H  0.04815166  0.32161385  0.18687302     0.13130
C240        C  0.06282893  0.28492318  0.14188232     0.62660
F241        F  0.42472282  0.28883512  0.18055772    -0.22510
F242        F  0.43915203  0.33291170  0.19539891    -0.19830
F243        F  0.44707384  0.29274743  0.22442377    -0.19510
F244        F  0.06025868  0.28929684  0.11170342    -0.19560
F245        F  0.07289447  0.25660998  0.14780288    -0.19890
F246        F  0.08359791  0.30416356  0.15234116    -0.22560
C247        C  0.02731684  0.26496772  0.32712064    -0.05400
C248        C  0.00234826  0.26328362  0.34512419     0.00530
C249        C  0.47996152  0.28528686  0.34263103    -0.08040
C250        C  0.48253995  0.30727317  0.32049409    -0.05420
C251        C  0.50667429  0.30774115  0.30123023     0.00520
C252        C  0.03027333  0.28725345  0.30563244    -0.07950
C253        C  0.05851680  0.28732433  0.28775123     0.62430
H254        H  0.04448615  0.24819389  0.32948161     0.13120
H255        H  0.46486230  0.32326297  0.31688983     0.13130
C256        C  0.45282615  0.28467420  0.36210379     0.62660
F257        F  0.08265481  0.28432828  0.30655607    -0.22510
F258        F  0.06203375  0.31295398  0.27136381    -0.19830
F259        F  0.05843223  0.26390091  0.26896084    -0.19510
F260        F  0.46106299  0.28860516  0.39109823    -0.19560
F261        F  0.43885071  0.25805895  0.35979705    -0.19890
F262        F  0.43267242  0.30669089  0.35427323    -0.22560
C263        C  0.47257596  0.11430240  0.32706910    -0.05400
C264        C  0.49684511  0.11044620  0.30843290     0.00530
C265        C  0.02244292  0.12763268  0.31228771    -0.08040
C266        C  0.02181620  0.14977018  0.33306910    -0.05420
C267        C  0.99684379  0.15514990  0.35022382     0.00520
C268        C  0.47213879  0.13654431  0.34815958    -0.07950
C269        C  0.44496530  0.14118208  0.36694183     0.62430
H270        H  0.45326318  0.10102249  0.32363182     0.13120
H271        H  0.04064616  0.16409209  0.33494164     0.13130
C272        C  0.05030311  0.12508620  0.29391507     0.62660
F273        F  0.42285422  0.12170175  0.36027353    -0.22510
F274        F  0.43384794  0.16934767  0.36239632    -0.19830
F275        F  0.45235563  0.13703900  0.39635696    -0.19510
F276        F  0.05276349  0.14998582  0.27615736    -0.19560
F277        F  0.05086696  0.10084762  0.27626732    -0.19890
F278        F  0.07471178  0.12301555  0.31245220    -0.22560
C279        C  0.17665110  0.11694342  0.48813627    -0.05400
C280        C  0.19893092  0.11725004  0.00981169     0.00530
C281        C  0.19740158  0.13834431  0.03221034    -0.08040
C282        C  0.17561210  0.16049266  0.03006163    -0.05420
C283        C  0.15468612  0.16162041  0.00706864     0.00520
C284        C  0.15430350  0.13880731  0.48634777    -0.07950
C285        C  0.13159975  0.13822463  0.46152685     0.62430
H286        H  0.17802803  0.10039803  0.47146344     0.13120
H287        H  0.17545912  0.17773396  0.04611774     0.13130
C288        C  0.21863958  0.13905770  0.05824508     0.62660
F289        F  0.13760619  0.11608149  0.44201406    -0.22510
F290        F  0.13138172  0.16458814  0.44583984    -0.19830
F291        F  0.10387394  0.13332583  0.97299525    -0.19510
F292        F  0.23690146  0.16296595  0.55494964    -0.19560
F293        F  0.23588555  0.11387350  0.06128013    -0.19890
F294        F  0.20274986  0.14190572  0.08397150    -0.22560
C295        C  0.33284863  0.15458810  0.47180226    -0.05400
C296        C  0.35287259  0.15232521  0.99553073     0.00530
C297        C  0.35213702  0.12787364  0.01510099    -0.08040
C298        C  0.32880079  0.10806255  0.01233935    -0.05420
C299        C  0.30669140  0.11242160  0.99067473     0.00520
C300        C  0.30984010  0.13475536  0.46874157    -0.07950
C301        C  0.28876266  0.13954468  0.44280251     0.62430
H302        H  0.33410939  0.17319415  0.45654474     0.13120
H303        H  0.32633433  0.09043654  0.02850482     0.13130
C304        C  0.37500554  0.12373455  0.03945935     0.62660
F305        F  0.30485023  0.14328853  0.91722101    -0.22510
F306        F  0.27184502  0.16451209  0.94710483    -0.19830
F307        F  0.27018679  0.11615441  0.43877679    -0.19510
F308        F  0.37393944  0.14728915  0.05805783    -0.19560
F309        F  0.40284545  0.12179347  0.52722574    -0.19890
F310        F  0.37037141  0.09840655  0.55601497    -0.22560
C311        C  0.34969444  0.28629345  0.50032895    -0.05400
C312        C  0.34023065  0.25772663  0.00858769     0.00530
C313        C  0.30961503  0.25521209  0.01624877    -0.08040
C314        C  0.29415800  0.28065936  0.02377849    -0.05420
C315        C  0.30127151  0.30779559  0.01075874     0.00520
C316        C  0.33017817  0.31094438  0.49911342    -0.07950
C317        C  0.34078650  0.33954571  0.48532201     0.62430
H318        H  0.37188029  0.28929343  0.49260149     0.13120
H319        H  0.27255325  0.27822355  0.03368737     0.13130
C320        C  0.28957973  0.22980293  0.00810952     0.62660
F321        F  0.36776800  0.33606878  0.97154693    -0.22510
F322        F  0.34439430  0.35997987  0.00700596    -0.19830
F323        F  0.32071808  0.35001835  0.46433207    -0.19510
F324        F  0.28537834  0.21137816  0.03232459    -0.19560
F325        F  0.30061246  0.21458865  0.48462606    -0.19890
F326        F  0.26182968  0.23994669  0.49918405    -0.22560
C327        C  0.17973273  0.30872954  0.01664431    -0.05400
C328        C  0.19460135  0.31437056  0.99014203     0.00530
C329        C  0.18644856  0.29929539  0.46451630    -0.08040
C330        C  0.16512298  0.27718836  0.46685376    -0.05420
C331        C  0.15203524  0.26991183  0.99393634     0.00520
C332        C  0.15862083  0.28647107  0.01907608    -0.07950
C333        C  0.14463294  0.27945852  0.04867066     0.62430
H334        H  0.18644286  0.32045261  0.03600451     0.13120
H335        H  0.15969953  0.26425516  0.44790504     0.13130
C336        C  0.20071503  0.30620451  0.43507477     0.62660
F337        F  0.15430460  0.29796161  0.07035502    -0.22510
F338        F  0.15172068  0.25096078  0.05748369    -0.19830
F339        F  0.11425243  0.28253666  0.04634058    -0.19510
F340        F  0.23034169  0.29837560  0.43598406    -0.19560
F341        F  0.19800148  0.33593741  0.42875098    -0.19890
F342        F  0.18748008  0.29128175  0.41240744    -0.22560
C343        C  0.24926520  0.37551130  0.00222951     0.03510
C344        C  0.22261137  0.36134328  0.99561740    -0.12640
C345        C  0.22240423  0.33106791  0.49194495     0.01010
C346        C  0.24884377  0.31515783  0.49450677    -0.11160
C347        C  0.27533848  0.32803772  0.50384323     0.03500
C348        C  0.27518749  0.35853592  0.00783169    -0.10580
H349        H  0.20208813  0.37374250  0.99319360     0.09100
H350        H  0.24812672  0.29187950  0.49075383     0.06630
H351        H  0.29467160  0.36919500  0.01575200     0.06470
C352        C  0.41147540  0.21023980  0.49850519     0.03510
C353        C  0.39299573  0.23505702  0.50303639    -0.12760
C354        C  0.36211391  0.23184724  0.50790569     0.01010
C355        C  0.35270976  0.20292027  0.51236956    -0.11160
C356        C  0.36905740  0.17914440  0.50232355     0.03500
C357        C  0.39858494  0.18271057  0.49535155    -0.10580
H358        H  0.40325991  0.25620457  0.50391999     0.09100
H359        H  0.33211394  0.19787515  0.52225935     0.06630
H360        H  0.41154995  0.16400066  0.48837791     0.06470
C361        C  0.25092332  0.05190612  0.49943365     0.03510
C362        C  0.27770460  0.06643598  0.49489316    -0.12640
C363        C  0.27856823  0.09701567  0.49478617     0.01010
C364        C  0.25272159  0.11323313  0.50011205    -0.11160
C365        C  0.22586287  0.09915994  0.50510036     0.03500
C366        C  0.22488441  0.06843917  0.50421102    -0.10580
H367        H  0.29792352  0.05407583  0.49116602     0.09100
H368        H  0.25353393  0.13696730  0.50043284     0.06630
H369        H  0.20405980  0.05754074  0.50780268     0.06470
C370        C  0.08935453  0.21550802  0.50110536     0.03510
C371        C  0.10442520  0.24207090  0.49685544    -0.12640
C372        C  0.13541957  0.24226039  0.49639257     0.01010
C373        C  0.15130512  0.21573076  0.49903994    -0.11160
C374        C  0.13672026  0.18906725  0.50333980     0.03500
C375        C  0.10578931  0.18921231  0.50515166    -0.10580
H376        H  0.09220690  0.26257497  0.49413083     0.09100
H377        H  0.17525936  0.21591788  0.49827160     0.06630
H378        H  0.09454758  0.16893730  0.51002057     0.06470
C379        C  0.00023599  0.21069247  0.91131105     0.03510
C380        C  0.99825018  0.18371751  0.89701819    -0.12640
C381        C  0.99616816  0.18304019  0.86622461     0.01010
C382        C  0.99645798  0.20941561  0.84976154    -0.11160
C383        C  0.99920424  0.23634264  0.86360661     0.03500
C384        C  0.00132329  0.23688243  0.89436085    -0.10580
H385        H  0.99884280  0.16332212  0.90971559     0.09100
H386        H  0.99543410  0.20890881  0.82589560     0.06630
H387        H  0.00448277  0.25759869  0.90500595     0.06470
C388        C  0.49955525  0.37388056  0.74878352     0.03510
C389        C  0.50157132  0.35685258  0.77507132    -0.12640
C390        C  0.50403988  0.32620008  0.77407551     0.01010
C391        C  0.50349281  0.31255152  0.74680446    -0.11160
C392        C  0.50119914  0.32911265  0.72058752     0.03500
C393        C  0.49947863  0.35973491  0.72151683    -0.10580
H394        H  0.50193696  0.36732668  0.79624063     0.09100
H395        H  0.50503921  0.28883578  0.74595093     0.06630
H396        H  0.49821299  0.37238555  0.70102782     0.06470
C397        C  0.00089194  0.21689040  0.58826833     0.03510
C398        C  0.00491926  0.24424954  0.60121593    -0.12640
C399        C  0.01146661  0.24565147  0.63114323     0.01010
C400        C  0.01478116  0.21974368  0.64783294    -0.11160
C401        C  0.00452195  0.19296561  0.63727224     0.03500
C402        C  0.99887052  0.19147193  0.60662273    -0.10580
H403        H  0.00322976  0.26441201  0.58816358     0.09100
H404        H  0.02246999  0.22135567  0.67026401     0.06630
H405        H  0.99267064  0.17104864  0.59689414     0.06470
C406        C  0.50182589  0.05024840  0.75312894     0.03510
C407        C  0.50325121  0.06800344  0.72714111    -0.12640
C408        C  0.49613169  0.09838552  0.72754975     0.01010
C409        C  0.48746303  0.10944219  0.75511056    -0.11160
C410        C  0.49275094  0.09369556  0.78130689     0.03500
C411        C  0.49864146  0.06372640  0.78044271    -0.10580
H412        H  0.51014118  0.05764942  0.70738808     0.09100
H413        H  0.47872252  0.13145973  0.75720838     0.06630
H414        H  0.50097114  0.05117190  0.80091386     0.06470
C415        C  0.25131348  0.46272516  0.91246398     0.03510
C416        C  0.22540889  0.45578350  0.89690276    -0.12640
C417        C  0.22563931  0.45414660  0.86614285     0.01010
C418        C  0.25160466  0.46027213  0.85076611    -0.11160
C419        C  0.27713682  0.46879215  0.86573385     0.03500
C420        C  0.27720818  0.46920481  0.89666084    -0.10580
H421        H  0.20512508  0.45130268  0.90861049     0.09100
H422        H  0.25172089  0.45903641  0.82693946     0.06630
H423        H  0.29721470  0.47505834  0.90825654     0.06470
C424        C  0.41180519  0.46829388  0.75235949     0.03510
C425        C  0.39803510  0.47709746  0.77853478    -0.12640
C426        C  0.36723600  0.47981090  0.77988538     0.01010
C427        C  0.35071874  0.47677752  0.75401960    -0.11160
C428        C  0.36321616  0.46447803  0.72882856     0.03500
C429        C  0.39420338  0.46108906  0.72783507    -0.10580
H430        H  0.41118974  0.48160340  0.79785491     0.09100
H431        H  0.32722295  0.48129174  0.75455799     0.06630
H432        H  0.40459037  0.45212060  0.70856107     0.06470
C433        C  0.24876641  0.46188705  0.58975819     0.03510
C434        C  0.27481622  0.45918791  0.60711700    -0.12640
C435        C  0.27383067  0.44853415  0.63675196     0.01010
C436        C  0.24550869  0.44049436  0.64696817    -0.11160
C437        C  0.21978697  0.45064305  0.63273081     0.03500
C438        C  0.22128281  0.46069285  0.60368545    -0.10580
H439        H  0.29498820  0.46563761  0.59692511     0.09100
H440        H  0.24228576  0.42857527  0.66742379     0.06630
H441        H  0.20126153  0.46743792  0.59202070     0.06470
C442        C  0.08939305  0.45644504  0.75102419     0.03510
C443        C  0.10497897  0.45169186  0.77775875    -0.12640
C444        C  0.13594596  0.45082878  0.77818041     0.01010
C445        C  0.15124455  0.45319105  0.75159262    -0.11160
C446        C  0.13610982  0.45833379  0.72487112     0.03500
C447        C  0.10516806  0.45968992  0.72462130    -0.10580
H448        H  0.09311510  0.44874785  0.79820209     0.09100
H449        H  0.17519086  0.45186563  0.75181018     0.06630
H450        H  0.09351893  0.46366724  0.70392799     0.06470
O451        O  0.49913444  0.42162898  0.72610640    -0.71400
O452        O  0.50166875  0.00478620  0.72783152    -0.71610
O453        O  0.04230581  0.46116962  0.72692511    -0.71470
O454        O  0.45818274  0.46501577  0.72734217    -0.71480
O455        O  0.45921494  0.46384311  0.77518944    -0.71440
O456        O  0.04272328  0.45803836  0.77472833    -0.71460
O457        O  0.50315900  0.00240581  0.77563991    -0.71400
O458        O  0.49896457  0.41937128  0.77392763    -0.71590
V459        V  0.50032078  0.46310666  0.72795424     1.35240
V460        V  0.50097466  0.46095956  0.77391599     1.35170
C461        C  0.49895749  0.40627971  0.74966932     0.77840
C462        C  0.50279461  0.01782382  0.75207812     0.77900
C463        C  0.05681386  0.45861128  0.75083323     0.77770
C464        C  0.44438304  0.46546038  0.75148873     0.77730
O465        O  0.27395216  0.46373018  0.54357997    -0.71400
O466        O  0.27491374  0.46298467  0.95980292    -0.71610
O467        O  0.27450483  0.00485048  0.50034375    -0.71470
O468        O  0.27403951  0.42155941  0.50311798    -0.71480
O469        O  0.22605381  0.42283169  0.50184005    -0.71440
O470        O  0.22649945  0.00595165  0.49953185    -0.71460
O471        O  0.22691409  0.46399443  0.95885344    -0.71400
O472        O  0.22596268  0.46474632  0.54234201    -0.71590
V473        V  0.27343729  0.46332242  0.50167588     1.35240
V474        V  0.22731215  0.46437504  0.50066614     1.35170
C475        C  0.24971850  0.46422388  0.55725181     0.77840
C476        C  0.25107508  0.46332865  0.94503170     0.77900
C477        C  0.25058136  0.01958934  0.49970790     0.77770
C478        C  0.24986138  0.40795567  0.50275927     0.77730
O479        O  0.45958377  0.18876190  0.49954535    -0.71400
O480        O  0.04318366  0.19087367  0.50262640    -0.71610
O481        O  0.50002028  0.19105058  0.54298665    -0.71470
O482        O  0.00242323  0.18837397  0.95941816    -0.71480
O483        O  0.99951767  0.23591275  0.95667954    -0.71440
O484        O  0.99902586  0.23862281  0.54003683    -0.71460
O485        O  0.04132386  0.23838941  0.49884184    -0.71400
O486        O  0.45717072  0.23633941  0.49783354    -0.71590
V487        V  0.00126305  0.19070771  0.50109768     1.35240
V488        V  0.99930645  0.23641326  0.49841480     1.35170
C489        C  0.44405792  0.21204845  0.49828419     0.77840
C490        C  0.05661812  0.21496183  0.50098395     0.77900
C491        C  0.99945679  0.21536211  0.55578870     0.77770
C492        C  0.00095526  0.21167420  0.94379183     0.77730
C493        C  0.14816370  0.44201881  0.67463564    -0.05400
C494        C  0.15312113  0.46187436  0.69734998     0.00530
C495        C  0.17684844  0.48172437  0.69505333    -0.08040
C496        C  0.19718662  0.47808992  0.67239471    -0.05420
C497        C  0.19375438  0.45652635  0.65119356     0.00520
C498        C  0.16813376  0.43924444  0.65115241    -0.07950
C499        C  0.16262698  0.41742969  0.62713695     0.62430
H500        H  0.12951267  0.42748898  0.67636918     0.13120
H501        H  0.21666491  0.49168856  0.67174935     0.13130
C502        C  0.18236817  0.50625036  0.71640844     0.62660
F503        F  0.13690005  0.40202100  0.63186783    -0.22510
F504        F  0.18593043  0.39753356  0.62603538    -0.19830
F505        F  0.15993135  0.43215817  0.60026208    -0.19510
F506        F  0.20596214  0.49852132  0.73470434    -0.19560
F507        F  0.15796892  0.51254303  0.73340438    -0.19890
F508        F  0.18929049  0.53165053  0.70084059    -0.22560
C509        C  0.35089294  0.45751080  0.67493262    -0.05400
C510        C  0.34307223  0.45445175  0.70476410     0.00530
C511        C  0.31454982  0.44393705  0.71109766    -0.08040
C512        C  0.29305145  0.44582185  0.68905581    -0.05420
C513        C  0.29985885  0.44840861  0.65866238     0.00520
C514        C  0.33067912  0.45150060  0.65181540    -0.07950
C515        C  0.34387062  0.44729031  0.62155819     0.62430
H516        H  0.37310498  0.46415875  0.66950826     0.13120
H517        H  0.27081149  0.44446321  0.69702011     0.13130
C518        C  0.30558881  0.42914923  0.74006004     0.62660
F519        F  0.37280819  0.43707919  0.62400131    -0.22510
F520        F  0.34415450  0.47379092  0.60611279    -0.19830
F521        F  0.32851267  0.42654588  0.60611422    -0.19510
F522        F  0.28652470  0.44727759  0.75520243    -0.19560
F523        F  0.32961217  0.42151086  0.75776596    -0.19890
F524        F  0.29098156  0.40347559  0.73412235    -0.22560
C525        C  0.32896707  0.50369880  0.81011418    -0.05400
C526        C  0.35077773  0.48157374  0.80813017     0.00530
C527        C  0.35085279  0.45773821  0.82897825    -0.08040
C528        C  0.32733115  0.45556789  0.84902921    -0.05420
C529        C  0.30393032  0.47598916  0.84859852     0.00520
C530        C  0.30530182  0.50121872  0.82990316    -0.07950
C531        C  0.28138093  0.52493236  0.83014546     0.62430
H532        H  0.32925194  0.52177414  0.79420411     0.13120
H533        H  0.32603140  0.43687870  0.86410617     0.13130
C534        C  0.37462052  0.43379066  0.82931482     0.62660
F535        F  0.28926685  0.54943719  0.81360784    -0.22510
F536        F  0.27654960  0.53355161  0.85873594    -0.19830
F537        F  0.25536704  0.51449529  0.81851443    -0.19510
F538        F  0.40164907  0.44565250  0.83623634    -0.19560
F539        F  0.37617230  0.42085931  0.80212433    -0.19890
F540        F  0.36905083  0.41193215  0.85013290    -0.22560
C541        C  0.17757346  0.47189606  0.84706563    -0.05400
C542        C  0.19825906  0.44874949  0.84932413     0.00530
C543        C  0.19485959  0.42388055  0.83158760    -0.08040
C544        C  0.17249391  0.42444457  0.80997690    -0.05420
C545        C  0.15328437  0.44868159  0.80599725     0.00520
C546        C  0.15506467  0.47245786  0.82549114    -0.07950
C547        C  0.13467546  0.99915828  0.82241378     0.62430
H548        H  0.18054384  0.49056030  0.86104471     0.13120
H549        H  0.17085332  0.40628483  0.79508031     0.13130
C550        C  0.21458680  0.39671002  0.83388211     0.62660
F551        F  0.14199767  0.02065406  0.84210249    -0.22510
F552        F  0.10588252  0.49114274  0.82792295    -0.19830
F553        F  0.13642884  0.01122861  0.79426411    -0.19510
F554        F  0.19716544  0.37216486  0.83694759    -0.19560
F555        F  0.23378326  0.39687470  0.85771823    -0.19890
F556        F  0.23092117  0.39445161  0.80839002    -0.22560
C557        C  0.00272996  0.14983021  0.70915925    -0.05400
C558        C  0.49934178  0.12018815  0.70165724     0.00530
C559        C  0.49701761  0.11449270  0.67069493    -0.08040
C560        C  0.50030850  0.13826964  0.65008948    -0.05420
C561        C  0.99963079  0.16775335  0.65886998     0.00520
C562        C  0.99587761  0.17259496  0.68931906    -0.07950
C563        C  0.98019055  0.19910596  0.70217459     0.62430
H564        H  0.00715853  0.15613075  0.73152240     0.13120
H565        H  0.50274365  0.13362569  0.62701578     0.13130
C566        C  0.49110293  0.08451390  0.65830895     0.62660
F567        F  0.45900683  0.18961392  0.72194272    -0.22510
F568        F  0.46550448  0.21597124  0.68085528    -0.19830
F569        F  0.00010723  0.21608117  0.71721736    -0.19510
F570        F  0.46925326  0.07052113  0.67419325    -0.19560
F571        F  0.01689582  0.06786201  0.65865562    -0.19890
F572        F  0.98127191  0.08673198  0.62934798    -0.22560
C573        C  0.48034270  0.27940807  0.65880782    -0.05400
C574        C  0.50832420  0.27327143  0.64715665     0.00530
C575        C  0.03293080  0.28966667  0.65592517    -0.08040
C576        C  0.02927440  0.30996368  0.67854383    -0.05420
C577        C  0.50188208  0.31367847  0.69242314     0.00520
C578        C  0.47672609  0.29911913  0.68179923    -0.07950
C579        C  0.44656699  0.30338387  0.69566534     0.62430
H580        H  0.46173489  0.26678667  0.65136793     0.13120
H581        H  0.04814983  0.32161667  0.68689119     0.13130
C582        C  0.06282788  0.28493487  0.64189350     0.62660
F583        F  0.42472259  0.28883202  0.68057396    -0.22510
F584        F  0.43914934  0.33290705  0.69542195    -0.19830
F585        F  0.44707545  0.29273859  0.72443981    -0.19510
F586        F  0.06025723  0.28931485  0.61171540    -0.19560
F587        F  0.07289408  0.25662080  0.64780798    -0.19890
F588        F  0.08359655  0.30417341  0.65235639    -0.22560
C589        C  0.02732321  0.26496685  0.82713118    -0.05400
C590        C  0.00235480  0.26327779  0.84513438     0.00530
C591        C  0.47996708  0.28528046  0.84264569    -0.08040
C592        C  0.48254357  0.30727057  0.82051207    -0.05420
C593        C  0.50667733  0.30774294  0.80124755     0.00520
C594        C  0.03027800  0.28725646  0.80564675    -0.07950
C595        C  0.05852126  0.28733238  0.78776532     0.62430
H596        H  0.04449359  0.24819374  0.82948907     0.13120
H597        H  0.46486459  0.32325939  0.81691032     0.13130
C598        C  0.45283275  0.28466315  0.86211968     0.62660
F599        F  0.08265960  0.28433698  0.80656979    -0.22510
F600        F  0.06203512  0.31296420  0.77138059    -0.19830
F601        F  0.05843923  0.26391102  0.76897232    -0.19510
F602        F  0.46107115  0.28858744  0.89111481    -0.19560
F603        F  0.43885739  0.25804843  0.85980751    -0.19890
F604        F  0.43267856  0.30668139  0.85429512    -0.22560
C605        C  0.47257386  0.11430218  0.82705294    -0.05400
C606        C  0.49684145  0.11044808  0.80841441     0.00530
C607        C  0.02244034  0.12763286  0.81226964    -0.08040
C608        C  0.02181647  0.14976642  0.83305509    -0.05420
C609        C  0.99684582  0.15514392  0.85021290     0.00520
C610        C  0.47213947  0.13654034  0.84814720    -0.07950
C611        C  0.44496773  0.14117620  0.86693239     0.62430
H612        H  0.45326045  0.10102321  0.82361535     0.13120
H613        H  0.04064737  0.16408696  0.83492889     0.13130
C614        C  0.05029939  0.12508813  0.79389492     0.62660
F615        F  0.42285489  0.12169849  0.86026205    -0.22510
F616        F  0.43385176  0.16934312  0.86239288    -0.19830
F617        F  0.45236008  0.13702730  0.89634636    -0.19510
F618        F  0.05276135  0.14999166  0.77614311    -0.19560
F619        F  0.05086024  0.10085408  0.77624098    -0.19890
F620        F  0.07470877  0.12301083  0.81243063    -0.22560
C621        C  0.17666193  0.11691338  0.98813720    -0.05400
C622        C  0.19892076  0.11728053  0.50981004     0.00530
C623        C  0.19739278  0.13837603  0.53220762    -0.08040
C624        C  0.17560325  0.16052431  0.53005899    -0.05420
C625        C  0.15467655  0.16165149  0.50706663     0.00520
C626        C  0.15431381  0.13877680  0.98634913    -0.07950
C627        C  0.13161003  0.13819413  0.96152828     0.62430
H628        H  0.17803959  0.10036867  0.97146375     0.13120
H629        H  0.17545099  0.17776620  0.54611448     0.13130
C630        C  0.21863247  0.13909108  0.55824087     0.62660
F631        F  0.13761640  0.11605099  0.94201547    -0.22510
F632        F  0.13139193  0.16455768  0.94584135    -0.19830
F633        F  0.10386361  0.13335632  0.47299367    -0.19510
F634        F  0.23690955  0.16293207  0.05495606    -0.19560
F635        F  0.23587944  0.11390754  0.56127574    -0.19890
F636        F  0.20274437  0.14193964  0.58396823    -0.22560
C637        C  0.33286468  0.15455527  0.97181724    -0.05400
C638        C  0.35286382  0.15235244  0.49550956     0.00530
C639        C  0.35213084  0.12789881  0.51507752    -0.08040
C640        C  0.32879326  0.10808907  0.51231831    -0.05420
C641        C  0.30667884  0.11245216  0.49065949     0.00520
C642        C  0.30985721  0.13472155  0.96875424    -0.07950
C643        C  0.28878554  0.13950626  0.94280974     0.62430
H644        H  0.33413097  0.17315698  0.95655493     0.13120
H645        H  0.32632948  0.09046137  0.52848235     0.13130
C646        C  0.37500196  0.12375749  0.53943337     0.62660
F647        F  0.30482166  0.14333163  0.41721082    -0.22510
F648        F  0.27182323  0.16454960  0.44710579    -0.19830
F649        F  0.27021044  0.11611536  0.93878411    -0.19510
F650        F  0.37393729  0.14730993  0.55803470    -0.19560
F651        F  0.40285025  0.12176872  0.02725457    -0.19890
F652        F  0.37037291  0.09838538  0.05604302    -0.22560
C653        C  0.34970771  0.28627418  0.00033962    -0.05400
C654        C  0.34021823  0.25775302  0.50860503     0.00530
C655        C  0.30960690  0.25525029  0.51629474    -0.08040
C656        C  0.29416075  0.28070831  0.52381271    -0.05420
C657        C  0.30127205  0.30783251  0.51076780     0.00520
C658        C  0.33018517  0.31092064  0.99912403    -0.07950
C659        C  0.34079680  0.33952964  0.98535188     0.62430
H660        H  0.37189980  0.28928602  0.99263717     0.13120
H661        H  0.27256119  0.27828825  0.53373732     0.13130
C662        C  0.28955882  0.22983591  0.50820052     0.62660
F663        F  0.36775326  0.33607666  0.47151072    -0.22510
F664        F  0.34439099  0.36000790  0.50696345    -0.19830
F665        F  0.32073524  0.35001260  0.96436032    -0.19510
F666        F  0.28541236  0.21141163  0.53242638    -0.19560
F667        F  0.30067964  0.21455202  0.98455926    -0.19890
F668        F  0.26187282  0.23992365  0.99903531    -0.22560
C669        C  0.17973067  0.30875526  0.51664816    -0.05400
C670        C  0.19460111  0.31439604  0.49014683     0.00530
C671        C  0.18645014  0.29926739  0.96451264    -0.08040
C672        C  0.16512794  0.27715764  0.96685233    -0.05420
C673        C  0.15202759  0.26994285  0.49393666     0.00520
C674        C  0.15861499  0.28649982  0.51907760    -0.07950
C675        C  0.14462457  0.27948802  0.54867106     0.62430
H676        H  0.18644138  0.32047662  0.53600924     0.13120
H677        H  0.15970524  0.26422274  0.94790460     0.13130
C678        C  0.20071462  0.30617652  0.93507007     0.62660
F679        F  0.15429716  0.29798929  0.57035660    -0.22510
F680        F  0.15170845  0.25098926  0.55748355    -0.19830
F681        F  0.11424448  0.28256979  0.54633915    -0.19510
F682        F  0.23034161  0.29834889  0.93597740    -0.19560
F683        F  0.19799942  0.33590919  0.92874578    -0.19890
F684        F  0.18747887  0.29125271  0.91240394    -0.22560
C685        C  0.24926283  0.87554174  0.50222730     0.03510
C686        C  0.22260965  0.86137090  0.49561758    -0.12640
C687        C  0.22240457  0.83104144  0.99193973     0.01010
C688        C  0.24884297  0.81512980  0.99449838    -0.11160
C689        C  0.27533828  0.82800490  0.00384014     0.03500
C690        C  0.27518674  0.85856909  0.50782896    -0.10580
H691        H  0.20208574  0.87376880  0.49319250     0.09100
H692        H  0.24812310  0.79185331  0.99073806     0.06630
H693        H  0.29467175  0.86922983  0.51574568     0.06470
C694        C  0.41148707  0.71021053  0.99850105     0.03510
C695        C  0.39300794  0.73503043  0.00301893    -0.12760
C696        C  0.36212861  0.73182304  0.00789633     0.01010
C697        C  0.35271960  0.70289727  0.01238358    -0.11160
C698        C  0.36906906  0.67911693  0.00234103     0.03500
C699        C  0.39859515  0.68267962  0.99536278    -0.10580
H700        H  0.40327349  0.75617829  0.00388460     0.09100
H701        H  0.33213609  0.69786327  0.02227317     0.06630
H702        H  0.41155927  0.66396636  0.98839529     0.06470
C703        C  0.25093369  0.55187565  0.99943622     0.03510
C704        C  0.27771618  0.56640520  0.99490133    -0.12640
C705        C  0.27858028  0.59698489  0.99479667     0.01010
C706        C  0.25273294  0.61320253  0.00011891    -0.11160
C707        C  0.22587331  0.59912954  0.00510287     0.03500
C708        C  0.22489447  0.56840896  0.00421124    -0.10580
H709        H  0.29793555  0.55404494  0.99117674     0.09100
H710        H  0.25354559  0.63693665  0.00044076     0.06630
H711        H  0.20406914  0.55751080  0.00779948     0.06470
C712        C  0.08936445  0.71547759  0.00110812     0.03510
C713        C  0.10443497  0.74203991  0.99685725    -0.12640
C714        C  0.13542891  0.74222910  0.99639381     0.01010
C715        C  0.15131475  0.71569966  0.99904151    -0.11160
C716        C  0.13672988  0.68903622  0.00334194     0.03500
C717        C  0.10579890  0.68918156  0.00515429    -0.10580
H718        H  0.09221681  0.76254404  0.99413215     0.09100
H719        H  0.17526896  0.71588686  0.99827271     0.06630
H720        H  0.09455696  0.66890666  0.01002325     0.06470
C721        C  0.00022388  0.71071221  0.41131119     0.03510
C722        C  0.99824116  0.68373392  0.39702337    -0.12640
C723        C  0.99616285  0.68304985  0.36622989     0.01010
C724        C  0.99645309  0.70942213  0.34976183    -0.11160
C725        C  0.99919643  0.73635232  0.36360174     0.03500
C726        C  0.00131181  0.73689877  0.39435606    -0.10580
H727        H  0.99883385  0.66334092  0.40972473     0.09100
H728        H  0.99543196  0.70891044  0.32589601     0.06630
H729        H  0.00446979  0.75761718  0.40499746     0.06470
C730        C  0.49955754  0.87388032  0.24876913     0.03510
C731        C  0.50157247  0.85685064  0.27505564    -0.12640
C732        C  0.50404036  0.82619852  0.27405828     0.01010
C733        C  0.50349403  0.81255133  0.24678659    -0.11160
C734        C  0.50120147  0.82911372  0.22057019     0.03500
C735        C  0.49948165  0.85973637  0.22150118    -0.10580
H736        H  0.50193718  0.86732323  0.29622576     0.09100
H737        H  0.50503942  0.78883559  0.24593218     0.06630
H738        H  0.49821665  0.87238847  0.20101305     0.06470
C739        C  0.00089763  0.71686876  0.08826837     0.03510
C740        C  0.00492298  0.74423052  0.10121196    -0.12640
C741        C  0.01146696  0.74563813  0.13113959     0.01010
C742        C  0.01477964  0.71973316  0.14783404    -0.11160
C743        C  0.00452238  0.69295292  0.13727667     0.03500
C744        C  0.99887487  0.69145348  0.10662676    -0.10580
H745        H  0.00323472  0.76439090  0.08815616     0.09100
H746        H  0.02246591  0.72134907  0.17026557     0.06630
H747        H  0.99267651  0.67102843  0.09690086     0.06470
C748        C  0.50182969  0.55024718  0.25314488     0.03510
C749        C  0.50325543  0.56800339  0.22715821    -0.12640
C750        C  0.49613406  0.59838470  0.22756718     0.01010
C751        C  0.48746784  0.60944120  0.25512881    -0.11160
C752        C  0.49275574  0.59369361  0.28132481     0.03500
C753        C  0.49864521  0.56372389  0.28045950    -0.10580
H754        H  0.51014673  0.55765052  0.20740509     0.09100
H755        H  0.47872710  0.63145844  0.25722768     0.06630
H756        H  0.50097411  0.55116809  0.30092992     0.06470
C757        C  0.25130934  0.96275138  0.41246389     0.03510
C758        C  0.22540590  0.95580639  0.39690264    -0.12640
C759        C  0.22563840  0.95416320  0.36614328     0.01010
C760        C  0.25160467  0.96028596  0.35076691    -0.11160
C761        C  0.27713585  0.96880894  0.36573447     0.03500
C762        C  0.27720509  0.96922799  0.39666116    -0.10580
H763        H  0.20512147  0.95132741  0.40861002     0.09100
H764        H  0.25172238  0.95904591  0.32694060     0.06630
H765        H  0.29721095  0.97508354  0.40825686     0.06470
C766        C  0.41180737  0.96829281  0.25236300     0.03510
C767        C  0.39803736  0.97709832  0.27853767    -0.12640
C768        C  0.36723819  0.97981274  0.27988774     0.01010
C769        C  0.35072100  0.97677695  0.25402226    -0.11160
C770        C  0.36321848  0.96447496  0.22883257     0.03500
C771        C  0.39420562  0.96108597  0.22783937    -0.10580
H772        H  0.41119210  0.98160549  0.29785743     0.09100
H773        H  0.32722523  0.98129146  0.25456004     0.06630
H774        H  0.40459270  0.95211578  0.20856623     0.06470
C775        C  0.24877208  0.96186315  0.08975869     0.03510
C776        C  0.27482143  0.95916603  0.10711822    -0.12640
C777        C  0.27383500  0.94851961  0.13675566     0.01010
C778        C  0.24551220  0.94048354  0.14697302    -0.11160
C779        C  0.21979114  0.95063021  0.13273302     0.03500
C780        C  0.22128812  0.96067367  0.10368571    -0.10580
H781        H  0.29499345  0.96561187  0.09692449     0.09100
H782        H  0.24228780  0.92856842  0.16743056     0.06630
H783        H  0.20126750  0.96741773  0.09201931     0.06470
C784        C  0.08939495  0.95644466  0.25102302     0.03510
C785        C  0.10498100  0.95169311  0.27775765    -0.12640
C786        C  0.13594789  0.95083120  0.27817937     0.01010
C787        C  0.15124647  0.95319194  0.25159149    -0.11160
C788        C  0.13611167  0.95833261  0.22486967     0.03500
C789        C  0.10516982  0.95968838  0.22461987    -0.10580
H790        H  0.09311730  0.94874999  0.29820121     0.09100
H791        H  0.17519281  0.95186707  0.25180921     0.06630
H792        H  0.09352054  0.96366420  0.20392641     0.06470
O793        O  0.49913603  0.92163257  0.22609924    -0.71400
O794        O  0.50167056  0.50478915  0.22784092    -0.71610
O795        O  0.04230737  0.96117311  0.22692509    -0.71470
O796        O  0.45818437  0.96501905  0.22734460    -0.71480
O797        O  0.45921735  0.96383834  0.27519188    -0.71440
O798        O  0.04272559  0.95803352  0.27472795    -0.71460
O799        O  0.50316169  0.50240091  0.27564911    -0.71400
O800        O  0.49896679  0.91936685  0.27392027    -0.71590
V801        V  0.50032237  0.96310996  0.22795541     1.35240
V802        V  0.50097705  0.96095486  0.27391697     1.35170
C803        C  0.49895951  0.90627936  0.24965955     0.77840
C804        C  0.50279726  0.51782275  0.25208983     0.77900
C805        C  0.05681577  0.95861066  0.25083265     0.77770
C806        C  0.44438511  0.96545955  0.25149156     0.77730
O807        O  0.27395865  0.96369946  0.04358045    -0.71400
O808        O  0.27490790  0.96301626  0.45980290    -0.71610
O809        O  0.27451327  0.50481899  0.00034392    -0.71470
O810        O  0.27404444  0.92152783  0.00311908    -0.71480
O811        O  0.22605876  0.92280237  0.00184188    -0.71440
O812        O  0.22650793  0.50592220  0.99953180    -0.71460
O813        O  0.22690825  0.96402442  0.45885258    -0.71400
O814        O  0.22596918  0.96471809  0.04234235    -0.71590
V815        V  0.27344377  0.96329098  0.00167624     1.35240
V816        V  0.22731864  0.96434560  0.00066681     1.35170
C817        C  0.24972488  0.96419562  0.05725217     0.77840
C818        C  0.25106961  0.96335856  0.44503134     0.77900
C819        C  0.25059046  0.51955887  0.99970844     0.77770
C820        C  0.24986567  0.90792522  0.00276140     0.77730
O821        O  0.45959498  0.68873335  0.99954372    -0.71400
O822        O  0.04319366  0.69084493  0.00262718    -0.71610
O823        O  0.50002992  0.69102373  0.04298755    -0.71470
O824        O  0.00241178  0.68840019  0.45941957    -0.71480
O825        O  0.99950321  0.73593873  0.45667817    -0.71440
O826        O  0.99903304  0.73859585  0.04003588    -0.71460
O827        O  0.04133478  0.73836089  0.99884558    -0.71400
O828        O  0.45718170  0.73631082  0.99782935    -0.71590
V829        V  0.00127367  0.69067996  0.00109742     1.35240
V830        V  0.99931735  0.73638557  0.99841489     1.35170
C831        C  0.44406913  0.71201954  0.99828000     0.77840
C832        C  0.05662842  0.71493272  0.00098658     0.77900
C833        C  0.99946451  0.71533615  0.05578872     0.77770
C834        C  0.00094214  0.71169905  0.44379186     0.77730
C835        C  0.14816549  0.94201359  0.17463558    -0.05400
C836        C  0.15312308  0.96187092  0.19734828     0.00530
C837        C  0.17685110  0.98171998  0.19505034    -0.08040
C838        C  0.19718988  0.97808263  0.17239272    -0.05420
C839        C  0.19375766  0.95651699  0.15119365     0.00520
C840        C  0.16813613  0.93923630  0.15115319    -0.07950
C841        C  0.16262881  0.91741976  0.12713948     0.62430
H842        H  0.12951387  0.92748460  0.17636994     0.13120
H843        H  0.21666870  0.99168052  0.17174670     0.13130
C844        C  0.18237101  0.00624795  0.21640310     0.62660
F845        F  0.13690149  0.90201207  0.13187157    -0.22510
F846        F  0.18593173  0.89752290  0.12603939    -0.19830
F847        F  0.15993343  0.93214625  0.10026353    -0.19510
F848        F  0.20596513  0.99852054  0.23469945    -0.19560
F849        F  0.15797193  0.01254222  0.23339870    -0.19890
F850        F  0.18929322  0.03164671  0.20083284    -0.22560
C851        C  0.35089634  0.95750310  0.17493754    -0.05400
C852        C  0.34307498  0.95444642  0.20476892     0.00530
C853        C  0.31455270  0.94393182  0.21110282    -0.08040
C854        C  0.29305502  0.94581363  0.18906017    -0.05420
C855        C  0.29986300  0.94839763  0.15866659     0.00520
C856        C  0.33068353  0.95149041  0.15182024    -0.07950
C857        C  0.34387641  0.94727998  0.12156362     0.62430
H858        H  0.37310814  0.96415195  0.16951340     0.13120
H859        H  0.27081515  0.94445521  0.19702444     0.13130
C860        C  0.30559093  0.92914745  0.24006669     0.62660
F861        F  0.37281658  0.93707651  0.12400744    -0.22510
F862        F  0.34415371  0.97377906  0.10611512    -0.19830
F863        F  0.32852390  0.92652950  0.10612257    -0.19510
F864        F  0.28652663  0.94727782  0.25520649    -0.19560
F865        F  0.32961384  0.92151090  0.25777393    -0.19890
F866        F  0.29098360  0.90347316  0.23413182    -0.22560
C867        C  0.32897024  0.00370642  0.31011314    -0.05400
C868        C  0.35077947  0.98157962  0.30813193     0.00530
C869        C  0.35085218  0.95774601  0.32898214    -0.08040
C870        C  0.32732984  0.95557931  0.34903268    -0.05420
C871        C  0.30393050  0.97600233  0.34859945     0.00520
C872        C  0.30530417  0.00122986  0.32990158    -0.07950
C873        C  0.28138461  0.02494493  0.33014082     0.62430
H874        H  0.32925684  0.02178019  0.29420134     0.13120
H875        H  0.32602832  0.93689161  0.36411132     0.13130
C876        C  0.37461818  0.93379675  0.32932134     0.62660
F877        F  0.28927108  0.04944661  0.31359868    -0.22510
F878        F  0.27655507  0.03356924  0.35872998    -0.19830
F879        F  0.25536959  0.01450725  0.31851289    -0.19510
F880        F  0.40164753  0.94565736  0.33624197    -0.19560
F881        F  0.37616941  0.92086267  0.30213219    -0.19890
F882        F  0.36904660  0.91194064  0.35014142    -0.22560
C883        C  0.17757201  0.97190760  0.34706329    -0.05400
C884        C  0.19825918  0.94876262  0.34932432     0.00530
C885        C  0.19486193  0.92389165  0.33159021    -0.08040
C886        C  0.17249707  0.92445229  0.30997876    -0.05420
C887        C  0.15328596  0.94868772  0.30599649     0.00520
C888        C  0.15506384  0.97246590  0.32548830    -0.07950
C889        C  0.13467276  0.49916470  0.32240825     0.62430
H890        H  0.18054061  0.99057333  0.36104075     0.13120
H891        H  0.17085815  0.90629101  0.29508385     0.13130
C892        C  0.21459054  0.89672230  0.33388835     0.62660
F893        F  0.14199329  0.52066298  0.34209482    -0.22510
F894        F  0.10588038  0.99114776  0.32791814    -0.19830
F895        F  0.13642546  0.51123250  0.29425747    -0.19510
F896        F  0.19717040  0.87217638  0.33695496    -0.19560
F897        F  0.23378536  0.89689018  0.35772564    -0.19890
F898        F  0.23092670  0.89446249  0.30839756    -0.22560
C899        C  0.00272273  0.64982926  0.20917050    -0.05400
C900        C  0.49933903  0.62018552  0.20167250     0.00530
C901        C  0.49701599  0.61448555  0.17071095    -0.08040
C902        C  0.50030864  0.63825923  0.15010237    -0.05420
C903        C  0.99962931  0.66774429  0.15887807     0.00520
C904        C  0.99587203  0.67259072  0.18932581    -0.07950
C905        C  0.98018340  0.69910393  0.20217519     0.62430
H906        H  0.00714880  0.65613399  0.23153272     0.13120
H907        H  0.50274591  0.63361138  0.12702976     0.13130
C908        C  0.49109859  0.58450584  0.15832815     0.62660
F909        F  0.45899726  0.68961506  0.22194230    -0.22510
F910        F  0.46549964  0.71596588  0.18085154    -0.19830
F911        F  0.00009833  0.71608160  0.21721740    -0.19510
F912        F  0.46925226  0.57051364  0.17421766    -0.19560
F913        F  0.01689141  0.56785399  0.15866972    -0.19890
F914        F  0.98126089  0.58672271  0.12936930    -0.22560
C915        C  0.48034348  0.77940229  0.15879668    -0.05400
C916        C  0.50832500  0.77326185  0.14714747     0.00530
C917        C  0.03293181  0.78965865  0.15591270    -0.08040
C918        C  0.02927575  0.80996050  0.17852727    -0.05420
C919        C  0.50188334  0.81367918  0.19240553     0.00520
C920        C  0.47672702  0.79911876  0.18178360    -0.07950
C921        C  0.44656756  0.80338794  0.19564762     0.62430
H922        H  0.46173537  0.76677992  0.15135925     0.13120
H923        H  0.04815166  0.82161385  0.18687302     0.13130
C924        C  0.06282893  0.78492317  0.14188232     0.62660
F925        F  0.42472282  0.78883512  0.18055772    -0.22510
F926        F  0.43915204  0.83291171  0.19539891    -0.19830
F927        F  0.44707384  0.79274744  0.22442377    -0.19510
F928        F  0.06025868  0.78929683  0.11170342    -0.19560
F929        F  0.07289446  0.75660997  0.14780288    -0.19890
F930        F  0.08359791  0.80416355  0.15234117    -0.22560
C931        C  0.02731684  0.76496773  0.32712064    -0.05400
C932        C  0.00234826  0.76328362  0.34512419     0.00530
C933        C  0.47996152  0.78528686  0.34263103    -0.08040
C934        C  0.48253995  0.80727318  0.32049409    -0.05420
C935        C  0.50667429  0.80774115  0.30123023     0.00520
C936        C  0.03027333  0.78725346  0.30563244    -0.07950
C937        C  0.05851680  0.78732433  0.28775124     0.62430
H938        H  0.04448615  0.74819389  0.32948161     0.13120
H939        H  0.46486230  0.82326298  0.31688983     0.13130
C940        C  0.45282615  0.78467421  0.36210379     0.62660
F941        F  0.08265481  0.78432829  0.30655607    -0.22510
F942        F  0.06203375  0.81295399  0.27136381    -0.19830
F943        F  0.05843223  0.76390091  0.26896085    -0.19510
F944        F  0.46106299  0.78860516  0.39109823    -0.19560
F945        F  0.43885071  0.75805896  0.35979705    -0.19890
F946        F  0.43267242  0.80669089  0.35427323    -0.22560
C947        C  0.47257596  0.61430240  0.32706910    -0.05400
C948        C  0.49684511  0.61044620  0.30843290     0.00530
C949        C  0.02244291  0.62763268  0.31228771    -0.08040
C950        C  0.02181620  0.64977019  0.33306910    -0.05420
C951        C  0.99684379  0.65514990  0.35022382     0.00520
C952        C  0.47213878  0.63654432  0.34815957    -0.07950
C953        C  0.44496530  0.64118209  0.36694182     0.62430
H954        H  0.45326317  0.60102249  0.32363182     0.13120
H955        H  0.04064616  0.66409209  0.33494163     0.13130
C956        C  0.05030311  0.62508620  0.29391507     0.62660
F957        F  0.42285421  0.62170176  0.36027352    -0.22510
F958        F  0.43384793  0.66934768  0.36239631    -0.19830
F959        F  0.45235562  0.63703901  0.39635695    -0.19510
F960        F  0.05276348  0.64998582  0.27615735    -0.19560
F961        F  0.05086696  0.60084762  0.27626732    -0.19890
F962        F  0.07471178  0.62301556  0.31245219    -0.22560
C963        C  0.17665110  0.61694341  0.48813627    -0.05400
C964        C  0.19893092  0.61725004  0.00981169     0.00530
C965        C  0.19740158  0.63834431  0.03221035    -0.08040
C966        C  0.17561211  0.66049266  0.03006163    -0.05420
C967        C  0.15468613  0.66162041  0.00706864     0.00520
C968        C  0.15430350  0.63880730  0.48634777    -0.07950
C969        C  0.13159975  0.63822463  0.46152685     0.62430
H970        H  0.17802802  0.60039803  0.47146344     0.13120
H971        H  0.17545913  0.67773396  0.04611775     0.13130
C972        C  0.21863959  0.63905770  0.05824508     0.62660
F973        F  0.13760619  0.61608149  0.44201406    -0.22510
F974        F  0.13138172  0.66458814  0.44583985    -0.19830
F975        F  0.10387394  0.63332583  0.97299525    -0.19510
F976        F  0.23690146  0.66296595  0.55494964    -0.19560
F977        F  0.23588555  0.61387350  0.06128013    -0.19890
F978        F  0.20274987  0.64190573  0.08397150    -0.22560
C979        C  0.33284863  0.65458811  0.47180225    -0.05400
C980        C  0.35287259  0.65232521  0.99553073     0.00530
C981        C  0.35213703  0.62787364  0.01510099    -0.08040
C982        C  0.32880079  0.60806255  0.01233936    -0.05420
C983        C  0.30669140  0.61242159  0.99067473     0.00520
C984        C  0.30984010  0.63475536  0.46874156    -0.07950
C985        C  0.28876265  0.63954469  0.44280251     0.62430
H986        H  0.33410938  0.67319415  0.45654474     0.13120
H987        H  0.32633433  0.59043654  0.02850483     0.13130
C988        C  0.37500554  0.62373455  0.03945936     0.62660
F989        F  0.30485024  0.64328853  0.91722101    -0.22510
F990        F  0.27184502  0.66451208  0.94710483    -0.19830
F991        F  0.27018679  0.61615442  0.43877678    -0.19510
F992        F  0.37393943  0.64728916  0.05805783    -0.19560
F993        F  0.40284546  0.62179346  0.52722573    -0.19890
F994        F  0.37037141  0.59840654  0.55601495    -0.22560
C995        C  0.34969443  0.78629345  0.50032894    -0.05400
C996        C  0.34023065  0.75772663  0.00858769     0.00530
C997        C  0.30961503  0.75521209  0.01624877    -0.08040
C998        C  0.29415800  0.78065936  0.02377849    -0.05420
C999        C  0.30127151  0.80779559  0.01075874     0.00520
C1000       C  0.33017817  0.81094438  0.49911341    -0.07950
C1001       C  0.34078649  0.83954571  0.48532199     0.62430
H1002       H  0.37188028  0.78929343  0.49260148     0.13120
H1003       H  0.27255325  0.77822355  0.03368737     0.13130
C1004       C  0.28957973  0.72980294  0.00810952     0.62660
F1005       F  0.36776801  0.83606878  0.97154694    -0.22510
F1006       F  0.34439430  0.85997987  0.00700597    -0.19830
F1007       F  0.32071808  0.85001835  0.46433206    -0.19510
F1008       F  0.28537834  0.71137817  0.03232458    -0.19560
F1009       F  0.30061245  0.71458865  0.48462607    -0.19890
F1010       F  0.26182967  0.73994669  0.49918407    -0.22560
C1011       C  0.17973272  0.80872955  0.01664430    -0.05400
C1012       C  0.19460135  0.81437056  0.99014202     0.00530
C1013       C  0.18644856  0.79929539  0.46451630    -0.08040
C1014       C  0.16512298  0.77718835  0.46685376    -0.05420
C1015       C  0.15203524  0.76991182  0.99393634     0.00520
C1016       C  0.15862082  0.78647107  0.01907607    -0.07950
C1017       C  0.14463294  0.77945853  0.04867065     0.62430
H1018       H  0.18644286  0.82045262  0.03600450     0.13120
H1019       H  0.15969953  0.76425515  0.44790504     0.13130
C1020       C  0.20071503  0.80620450  0.43507477     0.62660
F1021       F  0.15430459  0.79796162  0.07035501    -0.22510
F1022       F  0.15172067  0.75096079  0.05748369    -0.19830
F1023       F  0.11425243  0.78253667  0.04634057    -0.19510
F1024       F  0.23034168  0.79837560  0.43598405    -0.19560
F1025       F  0.19800147  0.83593740  0.42875098    -0.19890
F1026       F  0.18748008  0.79128175  0.41240744    -0.22560
C1027       C  0.24926520  0.87551130  0.00222951     0.03510
C1028       C  0.22261137  0.86134328  0.99561740    -0.12640
C1029       C  0.22240423  0.83106791  0.49194495     0.01010
C1030       C  0.24884377  0.81515783  0.49450677    -0.11160
C1031       C  0.27533847  0.82803772  0.50384322     0.03500
C1032       C  0.27518749  0.85853592  0.00783169    -0.10580
H1033       H  0.20208813  0.87374250  0.99319360     0.09100
H1034       H  0.24812671  0.79187950  0.49075383     0.06630
H1035       H  0.29467160  0.86919501  0.01575200     0.06470
C1036       C  0.41147540  0.71023980  0.49850518     0.03510
C1037       C  0.39299572  0.73505702  0.50303639    -0.12760
C1038       C  0.36211391  0.73184724  0.50790568     0.01010
C1039       C  0.35270976  0.70292027  0.51236955    -0.11160
C1040       C  0.36905740  0.67914441  0.50232354     0.03500
C1041       C  0.39858493  0.68271057  0.49535155    -0.10580
H1042       H  0.40325990  0.75620457  0.50391999     0.09100
H1043       H  0.33211393  0.69787515  0.52225934     0.06630
H1044       H  0.41154995  0.66400066  0.48837790     0.06470
C1045       C  0.25092332  0.55190612  0.49943365     0.03510
C1046       C  0.27770460  0.56643598  0.49489315    -0.12640
C1047       C  0.27856823  0.59701567  0.49478617     0.01010
C1048       C  0.25272159  0.61323313  0.50011205    -0.11160
C1049       C  0.22586287  0.59915994  0.50510036     0.03500
C1050       C  0.22488441  0.56843917  0.50421102    -0.10580
H1051       H  0.29792352  0.55407583  0.49116602     0.09100
H1052       H  0.25353393  0.63696730  0.50043283     0.06630
H1053       H  0.20405980  0.55754074  0.50780269     0.06470
C1054       C  0.08935453  0.71550802  0.50110536     0.03510
C1055       C  0.10442520  0.74207089  0.49685544    -0.12640
C1056       C  0.13541957  0.74226038  0.49639257     0.01010
C1057       C  0.15130512  0.71573076  0.49903995    -0.11160
C1058       C  0.13672026  0.68906725  0.50333980     0.03500
C1059       C  0.10578931  0.68921231  0.50515167    -0.10580
H1060       H  0.09220690  0.76257497  0.49413083     0.09100
H1061       H  0.17525936  0.71591788  0.49827160     0.06630
H1062       H  0.09454758  0.66893729  0.51002057     0.06470
C1063       C  0.00023600  0.71069247  0.91131104     0.03510
C1064       C  0.99825019  0.68371751  0.89701818    -0.12640
C1065       C  0.99616817  0.68304019  0.86622460     0.01010
C1066       C  0.99645800  0.70941561  0.84976154    -0.11160
C1067       C  0.99920425  0.73634264  0.86360661     0.03500
C1068       C  0.00132331  0.73688243  0.89436085    -0.10580
H1069       H  0.99884281  0.66332212  0.90971559     0.09100
H1070       H  0.99543412  0.70890881  0.82589560     0.06630
H1071       H  0.00448278  0.75759869  0.90500595     0.06470
C1072       C  0.49955526  0.87388056  0.74878352     0.03510
C1073       C  0.50157133  0.85685258  0.77507132    -0.12640
C1074       C  0.50403989  0.82620008  0.77407551     0.01010
C1075       C  0.50349282  0.81255152  0.74680446    -0.11160
C1076       C  0.50119915  0.82911265  0.72058752     0.03500
C1077       C  0.49947864  0.85973490  0.72151683    -0.10580
H1078       H  0.50193696  0.86732668  0.79624063     0.09100
H1079       H  0.50503922  0.78883578  0.74595093     0.06630
H1080       H  0.49821300  0.87238555  0.70102782     0.06470
C1081       C  0.00089194  0.71689040  0.58826833     0.03510
C1082       C  0.00491925  0.74424954  0.60121593    -0.12640
C1083       C  0.01146660  0.74565147  0.63114323     0.01010
C1084       C  0.01478116  0.71974368  0.64783294    -0.11160
C1085       C  0.00452195  0.69296561  0.63727224     0.03500
C1086       C  0.99887052  0.69147193  0.60662273    -0.10580
H1087       H  0.00322976  0.76441201  0.58816358     0.09100
H1088       H  0.02247000  0.72135567  0.67026401     0.06630
H1089       H  0.99267064  0.67104864  0.59689414     0.06470
C1090       C  0.50182589  0.55024840  0.75312895     0.03510
C1091       C  0.50325121  0.56800344  0.72714111    -0.12640
C1092       C  0.49613169  0.59838552  0.72754975     0.01010
C1093       C  0.48746303  0.60944219  0.75511056    -0.11160
C1094       C  0.49275094  0.59369556  0.78130689     0.03500
C1095       C  0.49864146  0.56372640  0.78044271    -0.10580
H1096       H  0.51014119  0.55764942  0.70738809     0.09100
H1097       H  0.47872252  0.63145973  0.75720838     0.06630
H1098       H  0.50097114  0.55117190  0.80091387     0.06470
C1099       C  0.25131348  0.96272516  0.91246398     0.03510
C1100       C  0.22540889  0.95578350  0.89690276    -0.12640
C1101       C  0.22563931  0.95414660  0.86614285     0.01010
C1102       C  0.25160465  0.96027213  0.85076610    -0.11160
C1103       C  0.27713682  0.96879215  0.86573385     0.03500
C1104       C  0.27720818  0.96920481  0.89666084    -0.10580
H1105       H  0.20512508  0.95130269  0.90861049     0.09100
H1106       H  0.25172089  0.95903641  0.82693945     0.06630
H1107       H  0.29721469  0.97505834  0.90825654     0.06470
C1108       C  0.41180518  0.96829387  0.75235949     0.03510
C1109       C  0.39803510  0.97709745  0.77853477    -0.12640
C1110       C  0.36723600  0.97981089  0.77988538     0.01010
C1111       C  0.35071874  0.97677750  0.75401959    -0.11160
C1112       C  0.36321616  0.96447801  0.72882856     0.03500
C1113       C  0.39420338  0.96108905  0.72783507    -0.10580
H1114       H  0.41118974  0.98160340  0.79785490     0.09100
H1115       H  0.32722294  0.98129171  0.75455798     0.06630
H1116       H  0.40459037  0.95212059  0.70856106     0.06470
C1117       C  0.24876641  0.96188705  0.58975819     0.03510
C1118       C  0.27481622  0.95918789  0.60711699    -0.12640
C1119       C  0.27383067  0.94853414  0.63675195     0.01010
C1120       C  0.24550868  0.94049437  0.64696817    -0.11160
C1121       C  0.21978697  0.95064306  0.63273081     0.03500
C1122       C  0.22128280  0.96069286  0.60368545    -0.10580
H1123       H  0.29498820  0.96563759  0.59692511     0.09100
H1124       H  0.24228574  0.92857527  0.66742379     0.06630
H1125       H  0.20126153  0.96743793  0.59202069     0.06470
C1126       C  0.08939304  0.95644505  0.75102419     0.03510
C1127       C  0.10497897  0.95169187  0.77775875    -0.12640
C1128       C  0.13594596  0.95082879  0.77818041     0.01010
C1129       C  0.15124454  0.95319106  0.75159262    -0.11160
C1130       C  0.13610982  0.95833380  0.72487112     0.03500
C1131       C  0.10516806  0.95968993  0.72462130    -0.10580
H1132       H  0.09311510  0.94874785  0.79820209     0.09100
H1133       H  0.17519086  0.95186564  0.75181018     0.06630
H1134       H  0.09351893  0.96366725  0.70392799     0.06470
O1135       O  0.49913444  0.92162898  0.72610640    -0.71400
O1136       O  0.50166876  0.50478620  0.72783152    -0.71610
O1137       O  0.04230581  0.96116962  0.72692511    -0.71470
O1138       O  0.45818274  0.96501577  0.72734217    -0.71480
O1139       O  0.45921494  0.96384311  0.77518944    -0.71440
O1140       O  0.04272328  0.95803837  0.77472833    -0.71460
O1141       O  0.50315901  0.50240581  0.77563991    -0.71400
O1142       O  0.49896457  0.91937128  0.77392762    -0.71590
V1143       V  0.50032078  0.96310666  0.72795423     1.35240
V1144       V  0.50097466  0.96095956  0.77391599     1.35170
C1145       C  0.49895749  0.90627971  0.74966932     0.77840
C1146       C  0.50279462  0.51782382  0.75207812     0.77900
C1147       C  0.05681385  0.95861129  0.75083323     0.77770
C1148       C  0.44438304  0.96546038  0.75148873     0.77730
O1149       O  0.27395216  0.96373018  0.54357997    -0.71400
O1150       O  0.27491374  0.96298467  0.95980292    -0.71610
O1151       O  0.27450483  0.50485048  0.50034375    -0.71470
O1152       O  0.27403950  0.92155941  0.50311798    -0.71480
O1153       O  0.22605380  0.92283169  0.50184005    -0.71440
O1154       O  0.22649945  0.50595165  0.49953185    -0.71460
O1155       O  0.22691409  0.96399443  0.95885344    -0.71400
O1156       O  0.22596267  0.96474632  0.54234201    -0.71590
V1157       V  0.27343729  0.96332242  0.50167587     1.35240
V1158       V  0.22731214  0.96437504  0.50066614     1.35170
C1159       C  0.24971850  0.96422388  0.55725181     0.77840
C1160       C  0.25107508  0.96332865  0.94503170     0.77900
C1161       C  0.25058136  0.51958933  0.49970790     0.77770
C1162       C  0.24986137  0.90795568  0.50275927     0.77730
O1163       O  0.45958377  0.68876190  0.49954535    -0.71400
O1164       O  0.04318366  0.69087367  0.50262640    -0.71610
O1165       O  0.50002028  0.69105058  0.54298665    -0.71470
O1166       O  0.00242324  0.68837396  0.95941816    -0.71480
O1167       O  0.99951768  0.73591275  0.95667954    -0.71440
O1168       O  0.99902586  0.73862281  0.54003683    -0.71460
O1169       O  0.04132385  0.73838941  0.49884184    -0.71400
O1170       O  0.45717072  0.73633941  0.49783354    -0.71590
V1171       V  0.00126305  0.69070771  0.50109768     1.35240
V1172       V  0.99930645  0.73641326  0.49841480     1.35170
C1173       C  0.44405792  0.71204845  0.49828419     0.77840
C1174       C  0.05661812  0.71496183  0.50098396     0.77900
C1175       C  0.99945678  0.71536211  0.55578870     0.77770
C1176       C  0.00095527  0.71167420  0.94379183     0.77730
C1177       C  0.14816369  0.94201882  0.67463564    -0.05400
C1178       C  0.15312113  0.96187437  0.69734998     0.00530
C1179       C  0.17684843  0.98172438  0.69505333    -0.08040
C1180       C  0.19718662  0.97808993  0.67239471    -0.05420
C1181       C  0.19375437  0.95652637  0.65119355     0.00520
C1182       C  0.16813376  0.93924446  0.65115240    -0.07950
C1183       C  0.16262698  0.91742970  0.62713695     0.62430
H1184       H  0.12951267  0.92748899  0.67636918     0.13120
H1185       H  0.21666491  0.99168857  0.67174935     0.13130
C1186       C  0.18236817  0.00625037  0.71640844     0.62660
F1187       F  0.13690004  0.90202102  0.63186782    -0.22510
F1188       F  0.18593043  0.89753358  0.62603537    -0.19830
F1189       F  0.15993134  0.93215818  0.60026208    -0.19510
F1190       F  0.20596213  0.99852133  0.73470434    -0.19560
F1191       F  0.15796892  0.01254304  0.73340438    -0.19890
F1192       F  0.18929049  0.03165055  0.70084060    -0.22560
C1193       C  0.35089293  0.95751080  0.67493261    -0.05400
C1194       C  0.34307223  0.95445173  0.70476409     0.00530
C1195       C  0.31454984  0.94393700  0.71109765    -0.08040
C1196       C  0.29305146  0.94582179  0.68905581    -0.05420
C1197       C  0.29985885  0.94840859  0.65866238     0.00520
C1198       C  0.33067912  0.95150060  0.65181539    -0.07950
C1199       C  0.34387062  0.94729033  0.62155819     0.62430
H1200       H  0.37310497  0.96415877  0.66950826     0.13120
H1201       H  0.27081151  0.94446312  0.69702011     0.13130
C1202       C  0.30558884  0.92914918  0.74006004     0.62660
F1203       F  0.37280820  0.93707923  0.62400130    -0.22510
F1204       F  0.34415448  0.97379095  0.60611279    -0.19830
F1205       F  0.32851269  0.92654589  0.60611420    -0.19510
F1206       F  0.28652472  0.94727751  0.75520243    -0.19560
F1207       F  0.32961220  0.92151081  0.75776595    -0.19890
F1208       F  0.29098161  0.90347553  0.73412234    -0.22560
C1209       C  0.32896707  0.00369879  0.81011417    -0.05400
C1210       C  0.35077772  0.98157373  0.80813016     0.00530
C1211       C  0.35085278  0.95773820  0.82897825    -0.08040
C1212       C  0.32733115  0.95556788  0.84902921    -0.05420
C1213       C  0.30393032  0.97598916  0.84859852     0.00520
C1214       C  0.30530182  0.00121871  0.82990315    -0.07950
C1215       C  0.28138093  0.02493236  0.83014545     0.62430
H1216       H  0.32925194  0.02177413  0.79420410     0.13120
H1217       H  0.32603140  0.93687870  0.86410617     0.13130
C1218       C  0.37462052  0.93379066  0.82931482     0.62660
F1219       F  0.28926685  0.04943719  0.81360783    -0.22510
F1220       F  0.27654959  0.03355161  0.85873593    -0.19830
F1221       F  0.25536704  0.01449529  0.81851442    -0.19510
F1222       F  0.40164906  0.94565250  0.83623634    -0.19560
F1223       F  0.37617230  0.92085930  0.80212434    -0.19890
F1224       F  0.36905083  0.91193216  0.85013291    -0.22560
C1225       C  0.17757346  0.97189607  0.84706563    -0.05400
C1226       C  0.19825905  0.94874949  0.84932413     0.00530
C1227       C  0.19485959  0.92388055  0.83158760    -0.08040
C1228       C  0.17249390  0.92444458  0.80997691    -0.05420
C1229       C  0.15328437  0.94868160  0.80599725     0.00520
C1230       C  0.15506467  0.97245787  0.82549113    -0.07950
C1231       C  0.13467546  0.49915826  0.82241379     0.62430
H1232       H  0.18054384  0.99056031  0.86104471     0.13120
H1233       H  0.17085331  0.90628484  0.79508031     0.13130
C1234       C  0.21458679  0.89671002  0.83388211     0.62660
F1235       F  0.14199767  0.52065405  0.84210250    -0.22510
F1236       F  0.10588252  0.99114276  0.82792294    -0.19830
F1237       F  0.13642883  0.51122860  0.79426411    -0.19510
F1238       F  0.19716543  0.87216486  0.83694760    -0.19560
F1239       F  0.23378325  0.89687471  0.85771824    -0.19890
F1240       F  0.23092116  0.89445161  0.80839003    -0.22560
C1241       C  0.00272998  0.64983021  0.70915925    -0.05400
C1242       C  0.49934178  0.62018815  0.70165724     0.00530
C1243       C  0.49701763  0.61449269  0.67069492    -0.08040
C1244       C  0.50030851  0.63826964  0.65008948    -0.05420
C1245       C  0.99963079  0.66775335  0.65886998     0.00520
C1246       C  0.99587762  0.67259495  0.68931907    -0.07950
C1247       C  0.98019057  0.69910596  0.70217460     0.62430
H1248       H  0.00715855  0.65613074  0.73152239     0.13120
H1249       H  0.50274368  0.63362568  0.62701578     0.13130
C1250       C  0.49110297  0.58451390  0.65830894     0.62660
F1251       F  0.45900682  0.68961393  0.72194270    -0.22510
F1252       F  0.46550448  0.71597124  0.68085526    -0.19830
F1253       F  0.00010725  0.71608117  0.71721736    -0.19510
F1254       F  0.46925329  0.57052112  0.67419323    -0.19560
F1255       F  0.01689581  0.56786201  0.65865561    -0.19890
F1256       F  0.98127189  0.58673198  0.62934798    -0.22560
C1257       C  0.48034271  0.77940807  0.65880781    -0.05400
C1258       C  0.50832422  0.77327143  0.64715665     0.00530
C1259       C  0.03293079  0.78966667  0.65592516    -0.08040
C1260       C  0.02927440  0.80996368  0.67854383    -0.05420
C1261       C  0.50188210  0.81367847  0.69242313     0.00520
C1262       C  0.47672611  0.79911913  0.68179922    -0.07950
C1263       C  0.44656700  0.80338388  0.69566532     0.62430
H1264       H  0.46173490  0.76678668  0.65136792     0.13120
H1265       H  0.04814983  0.82161667  0.68689118     0.13130
C1266       C  0.06282787  0.78493488  0.64189349     0.62660
F1267       F  0.42472261  0.78883203  0.68057395    -0.22510
F1268       F  0.43914936  0.83290706  0.69542193    -0.19830
F1269       F  0.44707545  0.79273861  0.72443979    -0.19510
F1270       F  0.06025722  0.78931485  0.61171539    -0.19560
F1271       F  0.07289408  0.75662080  0.64780798    -0.19890
F1272       F  0.08359654  0.80417341  0.65235638    -0.22560
C1273       C  0.02732323  0.76496685  0.82713118    -0.05400
C1274       C  0.00235482  0.76327779  0.84513438     0.00530
C1275       C  0.47996708  0.78528046  0.84264569    -0.08040
C1276       C  0.48254358  0.80727057  0.82051207    -0.05420
C1277       C  0.50667734  0.80774294  0.80124755     0.00520
C1278       C  0.03027801  0.78725646  0.80564675    -0.07950
C1279       C  0.05852127  0.78733237  0.78776531     0.62430
H1280       H  0.04449360  0.74819374  0.82948906     0.13120
H1281       H  0.46486460  0.82325939  0.81691032     0.13130
C1282       C  0.45283276  0.78466316  0.86211968     0.62660
F1283       F  0.08265962  0.78433697  0.80656977    -0.22510
F1284       F  0.06203513  0.81296420  0.77138058    -0.19830
F1285       F  0.05843923  0.76391101  0.76897231    -0.19510
F1286       F  0.46107116  0.78858744  0.89111481    -0.19560
F1287       F  0.43885740  0.75804843  0.85980751    -0.19890
F1288       F  0.43267857  0.80668139  0.85429512    -0.22560
C1289       C  0.47257386  0.61430218  0.82705294    -0.05400
C1290       C  0.49684145  0.61044808  0.80841441     0.00530
C1291       C  0.02244035  0.62763285  0.81226964    -0.08040
C1292       C  0.02181648  0.64976642  0.83305508    -0.05420
C1293       C  0.99684583  0.65514392  0.85021289     0.00520
C1294       C  0.47213948  0.63654034  0.84814720    -0.07950
C1295       C  0.44496773  0.64117621  0.86693239     0.62430
H1296       H  0.45326046  0.60102321  0.82361535     0.13120
H1297       H  0.04064738  0.66408695  0.83492889     0.13130
C1298       C  0.05029940  0.62508812  0.79389492     0.62660
F1299       F  0.42285489  0.62169850  0.86026204    -0.22510
F1300       F  0.43385177  0.66934312  0.86239288    -0.19830
F1301       F  0.45236008  0.63702731  0.89634636    -0.19510
F1302       F  0.05276137  0.64999165  0.77614311    -0.19560
F1303       F  0.05086025  0.60085408  0.77624098    -0.19890
F1304       F  0.07470878  0.62301082  0.81243063    -0.22560
C1305       C  0.17666193  0.61691338  0.98813720    -0.05400
C1306       C  0.19892076  0.61728053  0.50981004     0.00530
C1307       C  0.19739278  0.63837603  0.53220762    -0.08040
C1308       C  0.17560324  0.66052431  0.53005899    -0.05420
C1309       C  0.15467655  0.66165149  0.50706663     0.00520
C1310       C  0.15431382  0.63877680  0.98634913    -0.07950
C1311       C  0.13161003  0.63819413  0.96152829     0.62430
H1312       H  0.17803959  0.60036867  0.97146376     0.13120
H1313       H  0.17545099  0.67776619  0.54611448     0.13130
C1314       C  0.21863247  0.63909108  0.55824087     0.62660
F1315       F  0.13761640  0.61605099  0.94201547    -0.22510
F1316       F  0.13139193  0.66455768  0.94584136    -0.19830
F1317       F  0.10386361  0.63335632  0.47299367    -0.19510
F1318       F  0.23690956  0.66293207  0.05495606    -0.19560
F1319       F  0.23587944  0.61390754  0.56127574    -0.19890
F1320       F  0.20274437  0.64193963  0.58396823    -0.22560
C1321       C  0.33286468  0.65455527  0.97181724    -0.05400
C1322       C  0.35286382  0.65235244  0.49550955     0.00530
C1323       C  0.35213085  0.62789881  0.51507751    -0.08040
C1324       C  0.32879326  0.60808907  0.51231830    -0.05420
C1325       C  0.30667883  0.61245216  0.49065948     0.00520
C1326       C  0.30985722  0.63472155  0.96875424    -0.07950
C1327       C  0.28878555  0.63950626  0.94280974     0.62430
H1328       H  0.33413097  0.67315698  0.95655493     0.13120
H1329       H  0.32632948  0.59046137  0.52848234     0.13130
C1330       C  0.37500196  0.62375748  0.53943336     0.62660
F1331       F  0.30482165  0.64333163  0.41721081    -0.22510
F1332       F  0.27182322  0.66454960  0.44710579    -0.19830
F1333       F  0.27021044  0.61611536  0.93878411    -0.19510
F1334       F  0.37393730  0.64730993  0.55803469    -0.19560
F1335       F  0.40285025  0.62176873  0.02725458    -0.19890
F1336       F  0.37037291  0.59838538  0.05604303    -0.22560
C1337       C  0.34970771  0.78627419  0.00033962    -0.05400
C1338       C  0.34021823  0.75775302  0.50860503     0.00530
C1339       C  0.30960690  0.75525029  0.51629474    -0.08040
C1340       C  0.29416074  0.78070831  0.52381271    -0.05420
C1341       C  0.30127204  0.80783251  0.51076780     0.00520
C1342       C  0.33018517  0.81092064  0.99912404    -0.07950
C1343       C  0.34079680  0.83952964  0.98535188     0.62430
H1344       H  0.37189980  0.78928603  0.99263717     0.13120
H1345       H  0.27256119  0.77828826  0.53373732     0.13130
C1346       C  0.28955881  0.72983592  0.50820053     0.62660
F1347       F  0.36775325  0.83607665  0.47151071    -0.22510
F1348       F  0.34439099  0.86000790  0.50696344    -0.19830
F1349       F  0.32073525  0.85001261  0.96436032    -0.19510
F1350       F  0.28541237  0.71141163  0.53242639    -0.19560
F1351       F  0.30067965  0.71455203  0.98455925    -0.19890
F1352       F  0.26187282  0.73992365  0.99903530    -0.22560
C1353       C  0.17973067  0.80875526  0.51664816    -0.05400
C1354       C  0.19460111  0.81439604  0.49014683     0.00530
C1355       C  0.18645015  0.79926738  0.96451264    -0.08040
C1356       C  0.16512795  0.77715763  0.96685233    -0.05420
C1357       C  0.15202759  0.76994285  0.49393666     0.00520
C1358       C  0.15861499  0.78649982  0.51907760    -0.07950
C1359       C  0.14462457  0.77948802  0.54867106     0.62430
H1360       H  0.18644138  0.82047662  0.53600923     0.13120
H1361       H  0.15970525  0.76422273  0.94790460     0.13130
C1362       C  0.20071463  0.80617651  0.93507007     0.62660
F1363       F  0.15429716  0.79798929  0.57035660    -0.22510
F1364       F  0.15170845  0.75098926  0.55748355    -0.19830
F1365       F  0.11424448  0.78256979  0.54633915    -0.19510
F1366       F  0.23034162  0.79834887  0.93597741    -0.19560
F1367       F  0.19799943  0.83590918  0.92874577    -0.19890
F1368       F  0.18747888  0.79125269  0.91240393    -0.22560
C1369       C  0.74926283  0.37554174  0.50222731     0.03510
C1370       C  0.72260965  0.36137090  0.49561758    -0.12640
C1371       C  0.72240455  0.33104146  0.99193974     0.01010
C1372       C  0.74884295  0.31512982  0.99449838    -0.11160
C1373       C  0.77533826  0.32800492  0.00384014     0.03500
C1374       C  0.77518674  0.35856909  0.50782896    -0.10580
H1375       H  0.70208574  0.37376880  0.49319250     0.09100
H1376       H  0.74812308  0.29185334  0.99073805     0.06630
H1377       H  0.79467176  0.36922983  0.51574568     0.06470
C1378       C  0.91148707  0.21021054  0.99850105     0.03510
C1379       C  0.89300795  0.23503045  0.00301891    -0.12760
C1380       C  0.86212861  0.23182307  0.00789632     0.01010
C1381       C  0.85271962  0.20289730  0.01238358    -0.11160
C1382       C  0.86906906  0.17911695  0.00234105     0.03500
C1383       C  0.89859515  0.18267963  0.99536280    -0.10580
H1384       H  0.90327350  0.25617831  0.00388455     0.09100
H1385       H  0.83213607  0.19786332  0.02227318     0.06630
H1386       H  0.91155927  0.16396637  0.98839532     0.06470
C1387       C  0.75093369  0.05187567  0.99943622     0.03510
C1388       C  0.77771617  0.06640522  0.99490133    -0.12640
C1389       C  0.77858028  0.09698491  0.99479668     0.01010
C1390       C  0.75273294  0.11320255  0.00011891    -0.11160
C1391       C  0.72587331  0.09912956  0.00510286     0.03500
C1392       C  0.72489446  0.06840898  0.00421123    -0.10580
H1393       H  0.79793555  0.05404496  0.99117675     0.09100
H1394       H  0.75354559  0.13693667  0.00044076     0.06630
H1395       H  0.70406913  0.05751082  0.00779947     0.06470
C1396       C  0.58936444  0.21547761  0.00110812     0.03510
C1397       C  0.60443495  0.24203992  0.99685725    -0.12640
C1398       C  0.63542890  0.24222912  0.99639381     0.01010
C1399       C  0.65131474  0.21569968  0.99904151    -0.11160
C1400       C  0.63672987  0.18903624  0.00334193     0.03500
C1401       C  0.60579889  0.18918157  0.00515428    -0.10580
H1402       H  0.59221679  0.26254406  0.99413216     0.09100
H1403       H  0.67526895  0.21588689  0.99827270     0.06630
H1404       H  0.59455696  0.16890667  0.01002324     0.06470
C1405       C  0.50022388  0.21071221  0.41131119     0.03510
C1406       C  0.49824116  0.18373392  0.39702338    -0.12640
C1407       C  0.49616285  0.18304985  0.36622990     0.01010
C1408       C  0.49645308  0.20942213  0.34976183    -0.11160
C1409       C  0.49919642  0.23635232  0.36360174     0.03500
C1410       C  0.50131181  0.23689876  0.39435606    -0.10580
H1411       H  0.49883385  0.16334092  0.40972473     0.09100
H1412       H  0.49543196  0.20891044  0.32589602     0.06630
H1413       H  0.50446979  0.25761718  0.40499746     0.06470
C1414       C  0.99955754  0.37388032  0.24876913     0.03510
C1415       C  0.00157247  0.35685064  0.27505564    -0.12640
C1416       C  0.00404036  0.32619852  0.27405828     0.01010
C1417       C  0.00349403  0.31255133  0.24678659    -0.11160
C1418       C  0.00120147  0.32911372  0.22057019     0.03500
C1419       C  0.99948165  0.35973637  0.22150118    -0.10580
H1420       H  0.00193719  0.36732323  0.29622576     0.09100
H1421       H  0.00503942  0.28883559  0.24593218     0.06630
H1422       H  0.99821665  0.37238847  0.20101305     0.06470
C1423       C  0.50089763  0.21686876  0.08826838     0.03510
C1424       C  0.50492298  0.24423052  0.10121197    -0.12640
C1425       C  0.51146695  0.24563812  0.13113959     0.01010
C1426       C  0.51477962  0.21973315  0.14783405    -0.11160
C1427       C  0.50452235  0.19295292  0.13727667     0.03500
C1428       C  0.49887485  0.19145348  0.10662676    -0.10580
H1429       H  0.50323473  0.26439090  0.08815617     0.09100
H1430       H  0.52246587  0.22134906  0.17026559     0.06630
H1431       H  0.49267649  0.17102843  0.09690086     0.06470
C1432       C  0.00182970  0.05024718  0.25314488     0.03510
C1433       C  0.00325545  0.06800339  0.22715820    -0.12640
C1434       C  0.99613411  0.09838471  0.22756717     0.01010
C1435       C  0.98746788  0.10944122  0.25512879    -0.11160
C1436       C  0.99275576  0.09369362  0.28132480     0.03500
C1437       C  0.99864521  0.06372390  0.28045949    -0.10580
H1438       H  0.01014675  0.05765052  0.20740509     0.09100
H1439       H  0.97872717  0.13145846  0.25722766     0.06630
H1440       H  0.00097410  0.05116809  0.30092991     0.06470
C1441       C  0.75130934  0.46275138  0.41246389     0.03510
C1442       C  0.72540591  0.45580639  0.39690264    -0.12640
C1443       C  0.72563841  0.45416320  0.36614328     0.01010
C1444       C  0.75160467  0.46028595  0.35076692    -0.11160
C1445       C  0.77713586  0.46880893  0.36573447     0.03500
C1446       C  0.77720510  0.46922799  0.39666116    -0.10580
H1447       H  0.70512148  0.45132740  0.40861002     0.09100
H1448       H  0.75172239  0.45904591  0.32694061     0.06630
H1449       H  0.79721095  0.47508354  0.40825686     0.06470
C1450       C  0.91180737  0.46829282  0.25236300     0.03510
C1451       C  0.89803736  0.47709833  0.27853768    -0.12640
C1452       C  0.86723819  0.47981274  0.27988775     0.01010
C1453       C  0.85072100  0.47677697  0.25402226    -0.11160
C1454       C  0.86321848  0.46447497  0.22883257     0.03500
C1455       C  0.89420562  0.46108598  0.22783937    -0.10580
H1456       H  0.91119211  0.48160549  0.29785743     0.09100
H1457       H  0.82722524  0.48129149  0.25456004     0.06630
H1458       H  0.90459270  0.45211578  0.20856623     0.06470
C1459       C  0.74877208  0.46186317  0.08975870     0.03510
C1460       C  0.77482143  0.45916605  0.10711823    -0.12640
C1461       C  0.77383500  0.44851963  0.13675566     0.01010
C1462       C  0.74551221  0.44048353  0.14697301    -0.11160
C1463       C  0.71979115  0.45063020  0.13273302     0.03500
C1464       C  0.72128812  0.46067367  0.10368571    -0.10580
H1465       H  0.79499345  0.46561190  0.09692450     0.09100
H1466       H  0.74228782  0.42856841  0.16743056     0.06630
H1467       H  0.70126750  0.46741773  0.09201931     0.06470
C1468       C  0.58939495  0.45644466  0.25102302     0.03510
C1469       C  0.60498101  0.45169310  0.27775766    -0.12640
C1470       C  0.63594790  0.45083119  0.27817937     0.01010
C1471       C  0.65124647  0.45319193  0.25159150    -0.11160
C1472       C  0.63611167  0.45833260  0.22486968     0.03500
C1473       C  0.60516983  0.45968838  0.22461987    -0.10580
H1474       H  0.59311731  0.44874998  0.29820121     0.09100
H1475       H  0.67519281  0.45186705  0.25180921     0.06630
H1476       H  0.59352055  0.46366419  0.20392641     0.06470
O1477       O  0.99913603  0.42163257  0.22609924    -0.71400
O1478       O  0.00167056  0.00478916  0.22784092    -0.71610
O1479       O  0.54230737  0.46117311  0.22692509    -0.71470
O1480       O  0.95818437  0.46501906  0.22734460    -0.71480
O1481       O  0.95921735  0.46383834  0.27519188    -0.71440
O1482       O  0.54272559  0.45803352  0.27472796    -0.71460
O1483       O  0.00316168  0.00240092  0.27564910    -0.71400
O1484       O  0.99896679  0.41936686  0.27392027    -0.71590
V1485       V  0.00032237  0.46310996  0.22795541     1.35240
V1486       V  0.00097705  0.46095486  0.27391697     1.35170
C1487       C  0.99895951  0.40627936  0.24965955     0.77840
C1488       C  0.00279726  0.01782275  0.25208983     0.77900
C1489       C  0.55681578  0.45861066  0.25083265     0.77770
C1490       C  0.94438512  0.46545955  0.25149156     0.77730
O1491       O  0.77395865  0.46369948  0.04358045    -0.71400
O1492       O  0.77490790  0.46301625  0.45980290    -0.71610
O1493       O  0.77451326  0.00481901  0.00034392    -0.71470
O1494       O  0.77404443  0.42152785  0.00311909    -0.71480
O1495       O  0.72605875  0.42280239  0.00184188    -0.71440
O1496       O  0.72650792  0.00592223  0.99953180    -0.71460
O1497       O  0.72690825  0.46402442  0.45885258    -0.71400
O1498       O  0.72596918  0.46471812  0.04234236    -0.71590
V1499       V  0.77344377  0.46329099  0.00167625     1.35240
V1500       V  0.72731864  0.46434561  0.00066681     1.35170
C1501       C  0.74972488  0.46419564  0.05725217     0.77840
C1502       C  0.75106961  0.46335856  0.44503134     0.77900
C1503       C  0.75059046  0.01955889  0.99970844     0.77770
C1504       C  0.74986567  0.40792523  0.00276141     0.77730
O1505       O  0.95959498  0.18873335  0.99954372    -0.71400
O1506       O  0.54319365  0.19084494  0.00262718    -0.71610
O1507       O  0.00002993  0.19102374  0.04298755    -0.71470
O1508       O  0.50241178  0.18840019  0.45941957    -0.71480
O1509       O  0.49950321  0.23593873  0.45667817    -0.71440
O1510       O  0.49903303  0.23859585  0.04003589    -0.71460
O1511       O  0.54133477  0.23836090  0.99884558    -0.71400
O1512       O  0.95718171  0.23631083  0.99782934    -0.71590
V1513       V  0.50127367  0.19067996  0.00109742     1.35240
V1514       V  0.49931734  0.23638557  0.99841490     1.35170
C1515       C  0.94406913  0.21201955  0.99828000     0.77840
C1516       C  0.55662841  0.21493273  0.00098657     0.77900
C1517       C  0.49946450  0.21533615  0.05578872     0.77770
C1518       C  0.50094214  0.21169905  0.44379186     0.77730
C1519       C  0.64816549  0.44201358  0.17463558    -0.05400
C1520       C  0.65312308  0.46187091  0.19734828     0.00530
C1521       C  0.67685110  0.48171997  0.19505034    -0.08040
C1522       C  0.69718989  0.47808261  0.17239272    -0.05420
C1523       C  0.69375767  0.45651698  0.15119366     0.00520
C1524       C  0.66813614  0.43923629  0.15115319    -0.07950
C1525       C  0.66262882  0.41741975  0.12713948     0.62430
H1526       H  0.62951387  0.42748459  0.17636995     0.13120
H1527       H  0.71666870  0.49168050  0.17174671     0.13130
C1528       C  0.68237101  0.50624793  0.21640311     0.62660
F1529       F  0.63690149  0.40201205  0.13187157    -0.22510
F1530       F  0.68593174  0.39752289  0.12603939    -0.19830
F1531       F  0.65993344  0.43214624  0.10026354    -0.19510
F1532       F  0.70596513  0.49852053  0.23469946    -0.19560
F1533       F  0.65797194  0.51254220  0.23339871    -0.19890
F1534       F  0.68929323  0.53164670  0.20083285    -0.22560
C1535       C  0.85089634  0.45750310  0.17493754    -0.05400
C1536       C  0.84307497  0.45444644  0.20476893     0.00530
C1537       C  0.81455269  0.44393187  0.21110282    -0.08040
C1538       C  0.79305501  0.44581369  0.18906017    -0.05420
C1539       C  0.79986299  0.44839766  0.15866659     0.00520
C1540       C  0.83068353  0.45149042  0.15182024    -0.07950
C1541       C  0.84387641  0.44727996  0.12156362     0.62430
H1542       H  0.87310815  0.46415193  0.16951340     0.13120
H1543       H  0.77081513  0.44445529  0.19702443     0.13130
C1544       C  0.80559091  0.42914750  0.24006670     0.62660
F1545       F  0.87281657  0.43707646  0.12400744    -0.22510
F1546       F  0.84415373  0.47377904  0.10611512    -0.19830
F1547       F  0.82852387  0.42652950  0.10612257    -0.19510
F1548       F  0.78652661  0.44727788  0.25520649    -0.19560
F1549       F  0.82961381  0.42151094  0.25777393    -0.19890
F1550       F  0.79098356  0.40347322  0.23413182    -0.22560
C1551       C  0.82897025  0.50370642  0.31011315    -0.05400
C1552       C  0.85077948  0.48157962  0.30813194     0.00530
C1553       C  0.85085219  0.45774601  0.32898214    -0.08040
C1554       C  0.82732985  0.45557931  0.34903268    -0.05420
C1555       C  0.80393051  0.47600233  0.34859945     0.00520
C1556       C  0.80530418  0.50122986  0.32990158    -0.07950
C1557       C  0.78138462  0.52494493  0.33014083     0.62430
H1558       H  0.82925685  0.52178020  0.29420135     0.13120
H1559       H  0.82602832  0.43689161  0.36411131     0.13130
C1560       C  0.87461818  0.43379675  0.32932134     0.62660
F1561       F  0.78927108  0.54944661  0.31359869    -0.22510
F1562       F  0.77655508  0.53356924  0.35872999    -0.19830
F1563       F  0.75536959  0.51450725  0.31851290    -0.19510
F1564       F  0.90164754  0.44565736  0.33624196    -0.19560
F1565       F  0.87616941  0.42086267  0.30213218    -0.19890
F1566       F  0.86904660  0.41194064  0.35014141    -0.22560
C1567       C  0.67757201  0.47190759  0.34706329    -0.05400
C1568       C  0.69825919  0.44876261  0.34932432     0.00530
C1569       C  0.69486194  0.42389164  0.33159021    -0.08040
C1570       C  0.67249707  0.42445228  0.30997876    -0.05420
C1571       C  0.65328596  0.44868771  0.30599649     0.00520
C1572       C  0.65506385  0.47246589  0.32548830    -0.07950
C1573       C  0.63467276  0.99916471  0.32240825     0.62430
H1574       H  0.68054061  0.49057332  0.36104075     0.13120
H1575       H  0.67085816  0.40629100  0.29508385     0.13130
C1576       C  0.71459054  0.39672230  0.33388835     0.62660
F1577       F  0.64199329  0.02066298  0.34209482    -0.22510
F1578       F  0.60588038  0.49114775  0.32791814    -0.19830
F1579       F  0.63642546  0.01123251  0.29425747    -0.19510
F1580       F  0.69717041  0.37217638  0.33695496    -0.19560
F1581       F  0.73378537  0.39689017  0.35772564    -0.19890
F1582       F  0.73092671  0.39446248  0.30839756    -0.22560
C1583       C  0.50272264  0.14982927  0.20917050    -0.05400
C1584       C  0.99933909  0.12018552  0.20167249     0.00530
C1585       C  0.99701601  0.11448556  0.17071095    -0.08040
C1586       C  0.00030866  0.13825924  0.15010236    -0.05420
C1587       C  0.49962926  0.16774428  0.15887807     0.00520
C1588       C  0.49587195  0.17259072  0.18932580    -0.07950
C1589       C  0.48018330  0.19910394  0.20217516     0.62430
H1590       H  0.50714868  0.15613402  0.23153272     0.13120
H1591       H  0.00274589  0.13361139  0.12702976     0.13130
C1592       C  0.99109856  0.08450586  0.15832815     0.62660
F1593       F  0.95899742  0.18961506  0.22194237    -0.22510
F1594       F  0.96549974  0.21596589  0.18085161    -0.19830
F1595       F  0.50009821  0.21608161  0.21721738    -0.19510
F1596       F  0.96925224  0.07051368  0.17421768    -0.19560
F1597       F  0.51689144  0.06785400  0.15866974    -0.19890
F1598       F  0.48126093  0.08672269  0.12936929    -0.22560
C1599       C  0.98034349  0.27940228  0.15879669    -0.05400
C1600       C  0.00832501  0.27326185  0.14714747     0.00530
C1601       C  0.53293181  0.28965863  0.15591271    -0.08040
C1602       C  0.52927575  0.30996048  0.17852728    -0.05420
C1603       C  0.00188334  0.31367919  0.19240553     0.00520
C1604       C  0.97672703  0.29911875  0.18178361    -0.07950
C1605       C  0.94656757  0.30338792  0.19564763     0.62430
H1606       H  0.96173538  0.26677990  0.15135926     0.13120
H1607       H  0.54815166  0.32161383  0.18687303     0.13130
C1608       C  0.56282893  0.28492314  0.14188234     0.62660
F1609       F  0.92472283  0.28883508  0.18055773    -0.22510
F1610       F  0.93915203  0.33291168  0.19539893    -0.19830
F1611       F  0.94707386  0.29274740  0.22442378    -0.19510
F1612       F  0.56025869  0.28929681  0.11170344    -0.19560
F1613       F  0.57289445  0.25660994  0.14780290    -0.19890
F1614       F  0.58359792  0.30416351  0.15234119    -0.22560
C1615       C  0.52731683  0.26496772  0.32712064    -0.05400
C1616       C  0.50234826  0.26328361  0.34512420     0.00530
C1617       C  0.97996152  0.28528686  0.34263103    -0.08040
C1618       C  0.98253995  0.30727317  0.32049409    -0.05420
C1619       C  0.00667429  0.30774115  0.30123023     0.00520
C1620       C  0.53027333  0.28725345  0.30563244    -0.07950
C1621       C  0.55851680  0.28732433  0.28775124     0.62430
H1622       H  0.54448615  0.24819389  0.32948162     0.13120
H1623       H  0.96486230  0.32326297  0.31688983     0.13130
C1624       C  0.95282615  0.28467420  0.36210379     0.62660
F1625       F  0.58265480  0.28432828  0.30655607    -0.22510
F1626       F  0.56203375  0.31295398  0.27136381    -0.19830
F1627       F  0.55843223  0.26390091  0.26896085    -0.19510
F1628       F  0.96106299  0.28860516  0.39109823    -0.19560
F1629       F  0.93885071  0.25805896  0.35979705    -0.19890
F1630       F  0.93267242  0.30669089  0.35427323    -0.22560
C1631       C  0.97257597  0.11430241  0.32706909    -0.05400
C1632       C  0.99684513  0.11044620  0.30843289     0.00530
C1633       C  0.52244290  0.12763269  0.31228771    -0.08040
C1634       C  0.52181619  0.14977019  0.33306909    -0.05420
C1635       C  0.49684379  0.15514990  0.35022382     0.00520
C1636       C  0.97213879  0.13654432  0.34815956    -0.07950
C1637       C  0.94496530  0.14118209  0.36694180     0.62430
H1638       H  0.95326318  0.10102250  0.32363179     0.13120
H1639       H  0.54064615  0.16409210  0.33494162     0.13130
C1640       C  0.55030309  0.12508621  0.29391505     0.62660
F1641       F  0.92285422  0.12170176  0.36027350    -0.22510
F1642       F  0.93384794  0.16934768  0.36239629    -0.19830
F1643       F  0.95235562  0.13703901  0.39635694    -0.19510
F1644       F  0.55276344  0.14998583  0.27615733    -0.19560
F1645       F  0.55086694  0.10084763  0.27626730    -0.19890
F1646       F  0.57471177  0.12301558  0.31245216    -0.22560
C1647       C  0.67665110  0.11694342  0.48813627    -0.05400
C1648       C  0.69893092  0.11725006  0.00981168     0.00530
C1649       C  0.69740157  0.13834433  0.03221034    -0.08040
C1650       C  0.67561210  0.16049268  0.03006162    -0.05420
C1651       C  0.65468612  0.16162042  0.00706863     0.00520
C1652       C  0.65430350  0.13880731  0.48634777    -0.07950
C1653       C  0.63159975  0.13822463  0.46152685     0.62430
H1654       H  0.67802802  0.10039803  0.47146344     0.13120
H1655       H  0.67545912  0.17773397  0.04611774     0.13130
C1656       C  0.71863958  0.13905771  0.05824508     0.62660
F1657       F  0.63760619  0.11608149  0.44201406    -0.22510
F1658       F  0.63138172  0.16458814  0.44583985    -0.19830
F1659       F  0.60387394  0.13332586  0.97299523    -0.19510
F1660       F  0.73690146  0.16296595  0.55494964    -0.19560
F1661       F  0.73588554  0.11387351  0.06128013    -0.19890
F1662       F  0.70274985  0.14190573  0.08397150    -0.22560
C1663       C  0.83284863  0.15458810  0.47180226    -0.05400
C1664       C  0.85287258  0.15232523  0.99553076     0.00530
C1665       C  0.85213702  0.12787366  0.01510102    -0.08040
C1666       C  0.82880078  0.10806257  0.01233938    -0.05420
C1667       C  0.80669140  0.11242162  0.99067475     0.00520
C1668       C  0.80984010  0.13475536  0.46874157    -0.07950
C1669       C  0.78876266  0.13954468  0.44280251     0.62430
H1670       H  0.83410939  0.17319414  0.45654474     0.13120
H1671       H  0.82633432  0.09043656  0.02850485     0.13130
C1672       C  0.87500553  0.12373458  0.03945938     0.62660
F1673       F  0.80485025  0.14328855  0.91722102    -0.22510
F1674       F  0.77184503  0.16451210  0.94710484    -0.19830
F1675       F  0.77018679  0.11615441  0.43877678    -0.19510
F1676       F  0.87393942  0.14728918  0.05805786    -0.19560
F1677       F  0.90284545  0.12179347  0.52722574    -0.19890
F1678       F  0.87037141  0.09840655  0.55601497    -0.22560
C1679       C  0.84969444  0.28629345  0.50032894    -0.05400
C1680       C  0.84023065  0.25772666  0.00858767     0.00530
C1681       C  0.80961503  0.25521210  0.01624870    -0.08040
C1682       C  0.79415799  0.28065935  0.02377844    -0.05420
C1683       C  0.80127149  0.30779560  0.01075873     0.00520
C1684       C  0.83017817  0.31094438  0.49911341    -0.07950
C1685       C  0.84078650  0.33954571  0.48532200     0.62430
H1686       H  0.87188029  0.28929343  0.49260149     0.13120
H1687       H  0.77255322  0.27822352  0.03368730     0.13130
C1688       C  0.78957975  0.22980295  0.00810938     0.62660
F1689       F  0.86776801  0.33606883  0.97154700    -0.22510
F1690       F  0.84439429  0.35997989  0.00700604    -0.19830
F1691       F  0.82071808  0.35001836  0.46433206    -0.19510
F1692       F  0.78537828  0.21137817  0.03232441    -0.19560
F1693       F  0.80061247  0.21458865  0.48462604    -0.19890
F1694       F  0.76182969  0.23994669  0.49918401    -0.22560
C1695       C  0.67973271  0.30872956  0.01664431    -0.05400
C1696       C  0.69460133  0.31437058  0.99014203     0.00530
C1697       C  0.68644856  0.29929539  0.46451630    -0.08040
C1698       C  0.66512298  0.27718836  0.46685375    -0.05420
C1699       C  0.65203523  0.26991185  0.99393634     0.00520
C1700       C  0.65862081  0.28647108  0.01907608    -0.07950
C1701       C  0.64463293  0.27945853  0.04867066     0.62430
H1702       H  0.68644284  0.32045263  0.03600452     0.13120
H1703       H  0.65969953  0.26425516  0.44790504     0.13130
C1704       C  0.70071503  0.30620451  0.43507476     0.62660
F1705       F  0.65430459  0.29796162  0.07035502    -0.22510
F1706       F  0.65172067  0.25096079  0.05748369    -0.19830
F1707       F  0.61425242  0.28253667  0.04634059    -0.19510
F1708       F  0.73034168  0.29837560  0.43598405    -0.19560
F1709       F  0.69800147  0.33593741  0.42875097    -0.19890
F1710       F  0.68748007  0.29128175  0.41240744    -0.22560
C1711       C  0.74926519  0.37551132  0.00222952     0.03510
C1712       C  0.72261136  0.36134330  0.99561741    -0.12640
C1713       C  0.72240423  0.33106791  0.49194494     0.01010
C1714       C  0.74884377  0.31515784  0.49450676    -0.11160
C1715       C  0.77533847  0.32803772  0.50384322     0.03500
C1716       C  0.77518747  0.35853593  0.00783170    -0.10580
H1717       H  0.70208811  0.37374252  0.99319361     0.09100
H1718       H  0.74812671  0.29187950  0.49075382     0.06630
H1719       H  0.79467159  0.36919502  0.01575201     0.06470
C1720       C  0.91147540  0.21023980  0.49850518     0.03510
C1721       C  0.89299573  0.23505702  0.50303638    -0.12760
C1722       C  0.86211391  0.23184724  0.50790568     0.01010
C1723       C  0.85270976  0.20292027  0.51236955    -0.11160
C1724       C  0.86905740  0.17914441  0.50232355     0.03500
C1725       C  0.89858494  0.18271057  0.49535155    -0.10580
H1726       H  0.90325991  0.25620457  0.50391998     0.09100
H1727       H  0.83211393  0.19787515  0.52225935     0.06630
H1728       H  0.91154995  0.16400066  0.48837791     0.06470
C1729       C  0.75092332  0.05190612  0.49943365     0.03510
C1730       C  0.77770460  0.06643598  0.49489316    -0.12640
C1731       C  0.77856823  0.09701567  0.49478617     0.01010
C1732       C  0.75272159  0.11323313  0.50011205    -0.11160
C1733       C  0.72586287  0.09915994  0.50510035     0.03500
C1734       C  0.72488441  0.06843917  0.50421102    -0.10580
H1735       H  0.79792352  0.05407583  0.49116602     0.09100
H1736       H  0.75353393  0.13696730  0.50043283     0.06630
H1737       H  0.70405980  0.05754074  0.50780268     0.06470
C1738       C  0.58935453  0.21550802  0.50110536     0.03510
C1739       C  0.60442520  0.24207090  0.49685544    -0.12640
C1740       C  0.63541957  0.24226039  0.49639257     0.01010
C1741       C  0.65130512  0.21573076  0.49903995    -0.11160
C1742       C  0.63672026  0.18906726  0.50333980     0.03500
C1743       C  0.60578931  0.18921231  0.50515167    -0.10580
H1744       H  0.59220689  0.26257497  0.49413083     0.09100
H1745       H  0.67525936  0.21591789  0.49827160     0.06630
H1746       H  0.59454758  0.16893730  0.51002057     0.06470
C1747       C  0.50023598  0.21069247  0.91131105     0.03510
C1748       C  0.49825017  0.18371751  0.89701819    -0.12640
C1749       C  0.49616815  0.18304019  0.86622460     0.01010
C1750       C  0.49645797  0.20941561  0.84976154    -0.11160
C1751       C  0.49920423  0.23634264  0.86360661     0.03500
C1752       C  0.50132329  0.23688243  0.89436085    -0.10580
H1753       H  0.49884279  0.16332212  0.90971559     0.09100
H1754       H  0.49543409  0.20890881  0.82589560     0.06630
H1755       H  0.50448276  0.25759869  0.90500595     0.06470
C1756       C  0.99955525  0.37388056  0.74878352     0.03510
C1757       C  0.00157132  0.35685257  0.77507132    -0.12640
C1758       C  0.00403988  0.32620008  0.77407551     0.01010
C1759       C  0.00349280  0.31255152  0.74680446    -0.11160
C1760       C  0.00119914  0.32911265  0.72058752     0.03500
C1761       C  0.99947862  0.35973490  0.72151683    -0.10580
H1762       H  0.00193695  0.36732667  0.79624063     0.09100
H1763       H  0.00503921  0.28883578  0.74595093     0.06630
H1764       H  0.99821299  0.37238554  0.70102782     0.06470
C1765       C  0.50089194  0.21689040  0.58826833     0.03510
C1766       C  0.50491925  0.24424954  0.60121594    -0.12640
C1767       C  0.51146660  0.24565148  0.63114324     0.01010
C1768       C  0.51478116  0.21974368  0.64783294    -0.11160
C1769       C  0.50452195  0.19296561  0.63727224     0.03500
C1770       C  0.49887052  0.19147193  0.60662273    -0.10580
H1771       H  0.50322975  0.26441201  0.58816358     0.09100
H1772       H  0.52247000  0.22135567  0.67026401     0.06630
H1773       H  0.49267064  0.17104865  0.59689414     0.06470
C1774       C  0.00182589  0.05024840  0.75312894     0.03510
C1775       C  0.00325121  0.06800344  0.72714111    -0.12640
C1776       C  0.99613169  0.09838552  0.72754975     0.01010
C1777       C  0.98746303  0.10944218  0.75511056    -0.11160
C1778       C  0.99275095  0.09369556  0.78130689     0.03500
C1779       C  0.99864147  0.06372640  0.78044271    -0.10580
H1780       H  0.01014118  0.05764942  0.70738809     0.09100
H1781       H  0.97872251  0.13145973  0.75720838     0.06630
H1782       H  0.00097115  0.05117190  0.80091386     0.06470
C1783       C  0.75131348  0.46272517  0.91246399     0.03510
C1784       C  0.72540889  0.45578351  0.89690276    -0.12640
C1785       C  0.72563931  0.45414660  0.86614286     0.01010
C1786       C  0.75160466  0.46027213  0.85076611    -0.11160
C1787       C  0.77713682  0.46879216  0.86573385     0.03500
C1788       C  0.77720818  0.46920482  0.89666084    -0.10580
H1789       H  0.70512508  0.45130270  0.90861049     0.09100
H1790       H  0.75172089  0.45903641  0.82693946     0.06630
H1791       H  0.79721469  0.47505835  0.90825654     0.06470
C1792       C  0.91180519  0.46829388  0.75235949     0.03510
C1793       C  0.89803510  0.47709746  0.77853478    -0.12640
C1794       C  0.86723600  0.47981090  0.77988538     0.01010
C1795       C  0.85071874  0.47677752  0.75401960    -0.11160
C1796       C  0.86321616  0.46447803  0.72882856     0.03500
C1797       C  0.89420338  0.46108906  0.72783507    -0.10580
H1798       H  0.91118974  0.48160340  0.79785491     0.09100
H1799       H  0.82722295  0.48129174  0.75455798     0.06630
H1800       H  0.90459037  0.45212060  0.70856107     0.06470
C1801       C  0.74876641  0.46188705  0.58975819     0.03510
C1802       C  0.77481622  0.45918791  0.60711700    -0.12640
C1803       C  0.77383067  0.44853415  0.63675195     0.01010
C1804       C  0.74550869  0.44049436  0.64696817    -0.11160
C1805       C  0.71978697  0.45064305  0.63273081     0.03500
C1806       C  0.72128280  0.46069285  0.60368545    -0.10580
H1807       H  0.79498820  0.46563761  0.59692511     0.09100
H1808       H  0.74228576  0.42857527  0.66742379     0.06630
H1809       H  0.70126153  0.46743792  0.59202070     0.06470
C1810       C  0.58939305  0.45644505  0.75102419     0.03510
C1811       C  0.60497897  0.45169187  0.77775875    -0.12640
C1812       C  0.63594596  0.45082879  0.77818041     0.01010
C1813       C  0.65124455  0.45319106  0.75159262    -0.11160
C1814       C  0.63610982  0.45833379  0.72487112     0.03500
C1815       C  0.60516806  0.45968993  0.72462130    -0.10580
H1816       H  0.59311510  0.44874785  0.79820209     0.09100
H1817       H  0.67519086  0.45186564  0.75181018     0.06630
H1818       H  0.59351893  0.46366724  0.70392800     0.06470
O1819       O  0.99913443  0.42162898  0.72610640    -0.71400
O1820       O  0.00166875  0.00478620  0.72783152    -0.71610
O1821       O  0.54230581  0.46116962  0.72692511    -0.71470
O1822       O  0.95818274  0.46501577  0.72734217    -0.71480
O1823       O  0.95921494  0.46384311  0.77518944    -0.71440
O1824       O  0.54272328  0.45803837  0.77472834    -0.71460
O1825       O  0.00315901  0.00240581  0.77563991    -0.71400
O1826       O  0.99896457  0.41937128  0.77392762    -0.71590
V1827       V  0.00032078  0.46310665  0.72795423     1.35240
V1828       V  0.00097466  0.46095956  0.77391599     1.35170
C1829       C  0.99895749  0.40627971  0.74966932     0.77840
C1830       C  0.00279461  0.01782382  0.75207812     0.77900
C1831       C  0.55681386  0.45861129  0.75083323     0.77770
C1832       C  0.94438304  0.46546038  0.75148873     0.77730
O1833       O  0.77395216  0.46373018  0.54357997    -0.71400
O1834       O  0.77491373  0.46298469  0.95980292    -0.71610
O1835       O  0.77450483  0.00485048  0.50034375    -0.71470
O1836       O  0.77403951  0.42155941  0.50311798    -0.71480
O1837       O  0.72605381  0.42283170  0.50184005    -0.71440
O1838       O  0.72649945  0.00595165  0.49953184    -0.71460
O1839       O  0.72691409  0.46399445  0.95885345    -0.71400
O1840       O  0.72596268  0.46474632  0.54234201    -0.71590
V1841       V  0.77343729  0.46332242  0.50167588     1.35240
V1842       V  0.72731214  0.46437504  0.50066614     1.35170
C1843       C  0.74971850  0.46422388  0.55725181     0.77840
C1844       C  0.75107508  0.46332866  0.94503170     0.77900
C1845       C  0.75058136  0.01958934  0.49970790     0.77770
C1846       C  0.74986138  0.40795568  0.50275927     0.77730
O1847       O  0.95958377  0.18876190  0.49954535    -0.71400
O1848       O  0.54318366  0.19087367  0.50262641    -0.71610
O1849       O  0.00002029  0.19105058  0.54298665    -0.71470
O1850       O  0.50242323  0.18837397  0.95941816    -0.71480
O1851       O  0.49951766  0.23591275  0.95667955    -0.71440
O1852       O  0.49902586  0.23862281  0.54003683    -0.71460
O1853       O  0.54132385  0.23838941  0.49884184    -0.71400
O1854       O  0.95717072  0.23633941  0.49783354    -0.71590
V1855       V  0.50126305  0.19070771  0.50109769     1.35240
V1856       V  0.49930645  0.23641326  0.49841480     1.35170
C1857       C  0.94405793  0.21204845  0.49828419     0.77840
C1858       C  0.55661812  0.21496183  0.50098396     0.77900
C1859       C  0.49945678  0.21536211  0.55578870     0.77770
C1860       C  0.50095525  0.21167420  0.94379183     0.77730
C1861       C  0.64816370  0.44201881  0.67463564    -0.05400
C1862       C  0.65312113  0.46187436  0.69734998     0.00530
C1863       C  0.67684844  0.48172438  0.69505333    -0.08040
C1864       C  0.69718662  0.47808992  0.67239471    -0.05420
C1865       C  0.69375437  0.45652636  0.65119356     0.00520
C1866       C  0.66813376  0.43924445  0.65115241    -0.07950
C1867       C  0.66262698  0.41742969  0.62713695     0.62430
H1868       H  0.62951267  0.42748899  0.67636919     0.13120
H1869       H  0.71666491  0.49168857  0.67174935     0.13130
C1870       C  0.68236817  0.50625037  0.71640844     0.62660
F1871       F  0.63690005  0.40202101  0.63186783    -0.22510
F1872       F  0.68593043  0.39753357  0.62603538    -0.19830
F1873       F  0.65993135  0.43215817  0.60026208    -0.19510
F1874       F  0.70596214  0.49852133  0.73470434    -0.19560
F1875       F  0.65796892  0.51254303  0.73340438    -0.19890
F1876       F  0.68929049  0.53165054  0.70084059    -0.22560
C1877       C  0.85089293  0.45751080  0.67493262    -0.05400
C1878       C  0.84307223  0.45445175  0.70476410     0.00530
C1879       C  0.81454982  0.44393705  0.71109766    -0.08040
C1880       C  0.79305145  0.44582185  0.68905581    -0.05420
C1881       C  0.79985885  0.44840861  0.65866238     0.00520
C1882       C  0.83067912  0.45150060  0.65181540    -0.07950
C1883       C  0.84387062  0.44729031  0.62155819     0.62430
H1884       H  0.87310498  0.46415875  0.66950826     0.13120
H1885       H  0.77081149  0.44446321  0.69702011     0.13130
C1886       C  0.80558881  0.42914923  0.74006004     0.62660
F1887       F  0.87280819  0.43707919  0.62400131    -0.22510
F1888       F  0.84415450  0.47379092  0.60611278    -0.19830
F1889       F  0.82851267  0.42654588  0.60611422    -0.19510
F1890       F  0.78652470  0.44727758  0.75520243    -0.19560
F1891       F  0.82961217  0.42151086  0.75776596    -0.19890
F1892       F  0.79098157  0.40347559  0.73412235    -0.22560
C1893       C  0.82896707  0.50369880  0.81011418    -0.05400
C1894       C  0.85077773  0.48157374  0.80813017     0.00530
C1895       C  0.85085279  0.45773821  0.82897825    -0.08040
C1896       C  0.82733115  0.45556789  0.84902921    -0.05420
C1897       C  0.80393032  0.47598916  0.84859852     0.00520
C1898       C  0.80530182  0.50121872  0.82990316    -0.07950
C1899       C  0.78138093  0.52493236  0.83014546     0.62430
H1900       H  0.82925194  0.52177414  0.79420411     0.13120
H1901       H  0.82603140  0.43687870  0.86410617     0.13130
C1902       C  0.87462052  0.43379066  0.82931482     0.62660
F1903       F  0.78926685  0.54943719  0.81360784    -0.22510
F1904       F  0.77654960  0.53355162  0.85873594    -0.19830
F1905       F  0.75536704  0.51449530  0.81851443    -0.19510
F1906       F  0.90164906  0.44565250  0.83623634    -0.19560
F1907       F  0.87617230  0.42085931  0.80212433    -0.19890
F1908       F  0.86905082  0.41193216  0.85013291    -0.22560
C1909       C  0.67757346  0.47189607  0.84706563    -0.05400
C1910       C  0.69825906  0.44874949  0.84932413     0.00530
C1911       C  0.69485959  0.42388055  0.83158760    -0.08040
C1912       C  0.67249391  0.42444458  0.80997691    -0.05420
C1913       C  0.65328437  0.44868160  0.80599725     0.00520
C1914       C  0.65506467  0.47245787  0.82549114    -0.07950
C1915       C  0.63467546  0.99915828  0.82241378     0.62430
H1916       H  0.68054384  0.49056031  0.86104471     0.13120
H1917       H  0.67085332  0.40628484  0.79508031     0.13130
C1918       C  0.71458680  0.39671003  0.83388211     0.62660
F1919       F  0.64199767  0.02065406  0.84210249    -0.22510
F1920       F  0.60588252  0.49114275  0.82792295    -0.19830
F1921       F  0.63642884  0.01122861  0.79426411    -0.19510
F1922       F  0.69716544  0.37216486  0.83694760    -0.19560
F1923       F  0.73378326  0.39687471  0.85771824    -0.19890
F1924       F  0.73092117  0.39445161  0.80839003    -0.22560
C1925       C  0.50272999  0.14983021  0.70915925    -0.05400
C1926       C  0.99934177  0.12018815  0.70165723     0.00530
C1927       C  0.99701763  0.11449269  0.67069492    -0.08040
C1928       C  0.00030851  0.13826964  0.65008948    -0.05420
C1929       C  0.49963079  0.16775335  0.65886999     0.00520
C1930       C  0.49587764  0.17259496  0.68931907    -0.07950
C1931       C  0.48019059  0.19910596  0.70217461     0.62430
H1932       H  0.50715857  0.15613074  0.73152240     0.13120
H1933       H  0.00274368  0.13362568  0.62701578     0.13130
C1934       C  0.99110298  0.08451389  0.65830894     0.62660
F1935       F  0.95900678  0.18961392  0.72194268    -0.22510
F1936       F  0.96550445  0.21597123  0.68085524    -0.19830
F1937       F  0.50010728  0.21608117  0.71721737    -0.19510
F1938       F  0.96925330  0.07052112  0.67419322    -0.19560
F1939       F  0.51689576  0.06786200  0.65865560    -0.19890
F1940       F  0.48127184  0.08673199  0.62934800    -0.22560
C1941       C  0.98034270  0.27940807  0.65880781    -0.05400
C1942       C  0.00832420  0.27327143  0.64715665     0.00530
C1943       C  0.53293079  0.28966668  0.65592516    -0.08040
C1944       C  0.52927439  0.30996369  0.67854383    -0.05420
C1945       C  0.00188208  0.31367847  0.69242313     0.00520
C1946       C  0.97672609  0.29911913  0.68179922    -0.07950
C1947       C  0.94656699  0.30338388  0.69566532     0.62430
H1948       H  0.96173489  0.26678668  0.65136792     0.13120
H1949       H  0.54814983  0.32161668  0.68689118     0.13130
C1950       C  0.56282787  0.28493489  0.64189349     0.62660
F1951       F  0.92472259  0.28883203  0.68057394    -0.22510
F1952       F  0.93914935  0.33290706  0.69542193    -0.19830
F1953       F  0.94707544  0.29273861  0.72443979    -0.19510
F1954       F  0.56025721  0.28931486  0.61171539    -0.19560
F1955       F  0.57289408  0.25662082  0.64780797    -0.19890
F1956       F  0.58359653  0.30417343  0.65235637    -0.22560
C1957       C  0.52732321  0.26496685  0.82713119    -0.05400
C1958       C  0.50235480  0.26327779  0.84513438     0.00530
C1959       C  0.97996708  0.28528045  0.84264569    -0.08040
C1960       C  0.98254357  0.30727056  0.82051207    -0.05420
C1961       C  0.00667733  0.30774294  0.80124755     0.00520
C1962       C  0.53027799  0.28725646  0.80564675    -0.07950
C1963       C  0.55852126  0.28733238  0.78776532     0.62430
H1964       H  0.54449358  0.24819374  0.82948907     0.13120
H1965       H  0.96486459  0.32325939  0.81691032     0.13130
C1966       C  0.95283275  0.28466315  0.86211968     0.62660
F1967       F  0.58265960  0.28433698  0.80656979    -0.22510
F1968       F  0.56203513  0.31296420  0.77138059    -0.19830
F1969       F  0.55843923  0.26391102  0.76897233    -0.19510
F1970       F  0.96107116  0.28858743  0.89111481    -0.19560
F1971       F  0.93885740  0.25804842  0.85980751    -0.19890
F1972       F  0.93267856  0.30668138  0.85429512    -0.22560
C1973       C  0.97257387  0.11430217  0.82705295    -0.05400
C1974       C  0.99684146  0.11044808  0.80841441     0.00530
C1975       C  0.52244033  0.12763285  0.81226964    -0.08040
C1976       C  0.52181646  0.14976642  0.83305509    -0.05420
C1977       C  0.49684581  0.15514392  0.85021290     0.00520
C1978       C  0.97213949  0.13654033  0.84814720    -0.07950
C1979       C  0.94496774  0.14117619  0.86693240     0.62430
H1980       H  0.95326047  0.10102320  0.82361536     0.13120
H1981       H  0.54064736  0.16408695  0.83492890     0.13130
C1982       C  0.55029938  0.12508812  0.79389493     0.62660
F1983       F  0.92285491  0.12169848  0.86026206    -0.22510
F1984       F  0.93385178  0.16934311  0.86239290    -0.19830
F1985       F  0.95236011  0.13702729  0.89634637    -0.19510
F1986       F  0.55276136  0.14999165  0.77614312    -0.19560
F1987       F  0.55086023  0.10085408  0.77624099    -0.19890
F1988       F  0.57470876  0.12301082  0.81243065    -0.22560
C1989       C  0.67666193  0.11691340  0.98813719    -0.05400
C1990       C  0.69892076  0.11728054  0.50981004     0.00530
C1991       C  0.69739278  0.13837603  0.53220761    -0.08040
C1992       C  0.67560325  0.16052431  0.53005899    -0.05420
C1993       C  0.65467655  0.16165149  0.50706663     0.00520
C1994       C  0.65431382  0.13877682  0.98634912    -0.07950
C1995       C  0.63161003  0.13819416  0.96152827     0.62430
H1996       H  0.67803959  0.10036869  0.97146374     0.13120
H1997       H  0.67545099  0.17776620  0.54611448     0.13130
C1998       C  0.71863247  0.13909108  0.55824087     0.62660
F1999       F  0.63761641  0.11605102  0.94201545    -0.22510
F2000       F  0.63139194  0.16455771  0.94584134    -0.19830
F2001       F  0.60386361  0.13335632  0.47299368    -0.19510
F2002       F  0.73690955  0.16293208  0.05495606    -0.19560
F2003       F  0.73587944  0.11390754  0.56127574    -0.19890
F2004       F  0.70274437  0.14193964  0.58396822    -0.22560
C2005       C  0.83286468  0.15455529  0.97181726    -0.05400
C2006       C  0.85286382  0.15235244  0.49550955     0.00530
C2007       C  0.85213084  0.12789881  0.51507751    -0.08040
C2008       C  0.82879326  0.10808907  0.51231830    -0.05420
C2009       C  0.80667884  0.11245216  0.49065949     0.00520
C2010       C  0.80985722  0.13472157  0.96875426    -0.07950
C2011       C  0.78878556  0.13950627  0.94280975     0.62430
H2012       H  0.83413098  0.17315699  0.95655494     0.13120
H2013       H  0.82632948  0.09046137  0.52848234     0.13130
C2014       C  0.87500196  0.12375749  0.53943337     0.62660
F2015       F  0.80482166  0.14333163  0.41721081    -0.22510
F2016       F  0.77182323  0.16454960  0.44710578    -0.19830
F2017       F  0.77021046  0.11611538  0.93878412    -0.19510
F2018       F  0.87393729  0.14730994  0.55803470    -0.19560
F2019       F  0.90285024  0.12176874  0.02725461    -0.19890
F2020       F  0.87037289  0.09838540  0.05604306    -0.22560
C2021       C  0.84970771  0.28627422  0.00033964    -0.05400
C2022       C  0.84021823  0.25775302  0.50860502     0.00530
C2023       C  0.80960690  0.25525028  0.51629473    -0.08040
C2024       C  0.79416074  0.28070830  0.52381269    -0.05420
C2025       C  0.80127204  0.30783251  0.51076779     0.00520
C2026       C  0.83018517  0.31092067  0.99912406    -0.07950
C2027       C  0.84079680  0.33952968  0.98535193     0.62430
H2028       H  0.87189982  0.28928608  0.99263723     0.13120
H2029       H  0.77256119  0.27828824  0.53373730     0.13130
C2030       C  0.78955882  0.22983591  0.50820049     0.62660
F2031       F  0.86775326  0.33607666  0.47151072    -0.22510
F2032       F  0.84439099  0.36000790  0.50696345    -0.19830
F2033       F  0.82073526  0.35001266  0.96436037    -0.19510
F2034       F  0.78541235  0.21141162  0.53242635    -0.19560
F2035       F  0.80067973  0.21455205  0.98455914    -0.19890
F2036       F  0.76187287  0.23992369  0.99903508    -0.22560
C2037       C  0.67973067  0.30875526  0.51664816    -0.05400
C2038       C  0.69460111  0.31439604  0.49014683     0.00530
C2039       C  0.68645013  0.29926741  0.96451265    -0.08040
C2040       C  0.66512793  0.27715766  0.96685234    -0.05420
C2041       C  0.65202758  0.26994285  0.49393666     0.00520
C2042       C  0.65861499  0.28649982  0.51907760    -0.07950
C2043       C  0.64462457  0.27948803  0.54867106     0.62430
H2044       H  0.68644138  0.32047663  0.53600923     0.13120
H2045       H  0.65970522  0.26422277  0.94790460     0.13130
C2046       C  0.70071460  0.30617655  0.93507007     0.62660
F2047       F  0.65429716  0.29798930  0.57035659    -0.22510
F2048       F  0.65170845  0.25098926  0.55748355    -0.19830
F2049       F  0.61424448  0.28256979  0.54633915    -0.19510
F2050       F  0.73034159  0.29834892  0.93597740    -0.19560
F2051       F  0.69799940  0.33590922  0.92874579    -0.19890
F2052       F  0.68747885  0.29125274  0.91240394    -0.22560
C2053       C  0.74926283  0.87554174  0.50222730     0.03510
C2054       C  0.72260965  0.86137091  0.49561758    -0.12640
C2055       C  0.72240454  0.83104147  0.99193973     0.01010
C2056       C  0.74884293  0.81512983  0.99449836    -0.11160
C2057       C  0.77533825  0.82800492  0.00384014     0.03500
C2058       C  0.77518673  0.85856909  0.50782896    -0.10580
H2059       H  0.70208574  0.87376880  0.49319250     0.09100
H2060       H  0.74812306  0.79185335  0.99073802     0.06630
H2061       H  0.79467175  0.86922983  0.51574568     0.06470
C2062       C  0.91148708  0.71021054  0.99850105     0.03510
C2063       C  0.89300796  0.73503046  0.00301888    -0.12760
C2064       C  0.86212863  0.73182308  0.00789630     0.01010
C2065       C  0.85271963  0.70289732  0.01238360    -0.11160
C2066       C  0.86906906  0.67911695  0.00234108     0.03500
C2067       C  0.89859515  0.68267963  0.99536283    -0.10580
H2068       H  0.90327351  0.75617832  0.00388449     0.09100
H2069       H  0.83213605  0.69786335  0.02227321     0.06630
H2070       H  0.91155927  0.66396636  0.98839537     0.06470
C2071       C  0.75093369  0.55187567  0.99943623     0.03510
C2072       C  0.77771618  0.56640522  0.99490135    -0.12640
C2073       C  0.77858028  0.59698491  0.99479670     0.01010
C2074       C  0.75273294  0.61320255  0.00011892    -0.11160
C2075       C  0.72587331  0.59912956  0.00510287     0.03500
C2076       C  0.72489446  0.56840898  0.00421123    -0.10580
H2077       H  0.79793555  0.55404496  0.99117677     0.09100
H2078       H  0.75354559  0.63693667  0.00044078     0.06630
H2079       H  0.70406913  0.55751082  0.00779947     0.06470
C2080       C  0.58936444  0.71547761  0.00110812     0.03510
C2081       C  0.60443495  0.74203992  0.99685725    -0.12640
C2082       C  0.63542890  0.74222912  0.99639380     0.01010
C2083       C  0.65131474  0.71569968  0.99904150    -0.11160
C2084       C  0.63672987  0.68903624  0.00334193     0.03500
C2085       C  0.60579889  0.68918157  0.00515428    -0.10580
H2086       H  0.59221679  0.76254405  0.99413215     0.09100
H2087       H  0.67526895  0.71588689  0.99827270     0.06630
H2088       H  0.59455696  0.66890667  0.01002325     0.06470
C2089       C  0.50022387  0.71071221  0.41131119     0.03510
C2090       C  0.49824116  0.68373392  0.39702337    -0.12640
C2091       C  0.49616284  0.68304985  0.36622989     0.01010
C2092       C  0.49645308  0.70942213  0.34976183    -0.11160
C2093       C  0.49919642  0.73635232  0.36360174     0.03500
C2094       C  0.50131180  0.73689877  0.39435606    -0.10580
H2095       H  0.49883385  0.66334092  0.40972473     0.09100
H2096       H  0.49543196  0.70891044  0.32589602     0.06630
H2097       H  0.50446979  0.75761718  0.40499746     0.06470
C2098       C  0.99955754  0.87388032  0.24876913     0.03510
C2099       C  0.00157247  0.85685064  0.27505563    -0.12640
C2100       C  0.00404036  0.82619852  0.27405828     0.01010
C2101       C  0.00349403  0.81255133  0.24678659    -0.11160
C2102       C  0.00120147  0.82911372  0.22057019     0.03500
C2103       C  0.99948165  0.85973637  0.22150118    -0.10580
H2104       H  0.00193718  0.86732323  0.29622576     0.09100
H2105       H  0.00503942  0.78883559  0.24593218     0.06630
H2106       H  0.99821665  0.87238847  0.20101305     0.06470
C2107       C  0.50089763  0.71686876  0.08826838     0.03510
C2108       C  0.50492298  0.74423051  0.10121197    -0.12640
C2109       C  0.51146695  0.74563812  0.13113960     0.01010
C2110       C  0.51477962  0.71973315  0.14783405    -0.11160
C2111       C  0.50452235  0.69295291  0.13727667     0.03500
C2112       C  0.49887485  0.69145348  0.10662676    -0.10580
H2113       H  0.50323473  0.76439090  0.08815617     0.09100
H2114       H  0.52246587  0.72134906  0.17026559     0.06630
H2115       H  0.49267649  0.67102843  0.09690086     0.06470
C2116       C  0.00182970  0.55024718  0.25314488     0.03510
C2117       C  0.00325545  0.56800339  0.22715820    -0.12640
C2118       C  0.99613410  0.59838471  0.22756717     0.01010
C2119       C  0.98746787  0.60944121  0.25512880    -0.11160
C2120       C  0.99275576  0.59369361  0.28132480     0.03500
C2121       C  0.99864522  0.56372389  0.28045949    -0.10580
H2122       H  0.01014675  0.55765052  0.20740509     0.09100
H2123       H  0.97872716  0.63145845  0.25722766     0.06630
H2124       H  0.00097411  0.55116809  0.30092991     0.06470
C2125       C  0.75130934  0.96275138  0.41246389     0.03510
C2126       C  0.72540590  0.95580639  0.39690264    -0.12640
C2127       C  0.72563840  0.95416320  0.36614328     0.01010
C2128       C  0.75160467  0.96028595  0.35076692    -0.11160
C2129       C  0.77713585  0.96880893  0.36573447     0.03500
C2130       C  0.77720509  0.96922799  0.39666116    -0.10580
H2131       H  0.70512147  0.95132740  0.40861002     0.09100
H2132       H  0.75172238  0.95904591  0.32694060     0.06630
H2133       H  0.79721095  0.97508354  0.40825686     0.06470
C2134       C  0.91180737  0.96829281  0.25236300     0.03510
C2135       C  0.89803736  0.97709832  0.27853767    -0.12640
C2136       C  0.86723818  0.97981273  0.27988774     0.01010
C2137       C  0.85072100  0.97677695  0.25402226    -0.11160
C2138       C  0.86321848  0.96447496  0.22883257     0.03500
C2139       C  0.89420562  0.96108598  0.22783936    -0.10580
H2140       H  0.91119210  0.98160549  0.29785742     0.09100
H2141       H  0.82722523  0.98129146  0.25456004     0.06630
H2142       H  0.90459270  0.95211578  0.20856622     0.06470
C2143       C  0.74877208  0.96186317  0.08975870     0.03510
C2144       C  0.77482142  0.95916604  0.10711822    -0.12640
C2145       C  0.77383500  0.94851962  0.13675566     0.01010
C2146       C  0.74551220  0.94048354  0.14697301    -0.11160
C2147       C  0.71979114  0.95063022  0.13273302     0.03500
C2148       C  0.72128811  0.96067369  0.10368571    -0.10580
H2149       H  0.79499344  0.96561189  0.09692449     0.09100
H2150       H  0.74228780  0.92856842  0.16743055     0.06630
H2151       H  0.70126749  0.96741775  0.09201931     0.06470
C2152       C  0.58939495  0.95644466  0.25102302     0.03510
C2153       C  0.60498100  0.95169311  0.27775766    -0.12640
C2154       C  0.63594789  0.95083119  0.27817937     0.01010
C2155       C  0.65124647  0.95319194  0.25159150    -0.11160
C2156       C  0.63611167  0.95833261  0.22486968     0.03500
C2157       C  0.60516982  0.95968838  0.22461987    -0.10580
H2158       H  0.59311730  0.94874999  0.29820121     0.09100
H2159       H  0.67519281  0.95186706  0.25180921     0.06630
H2160       H  0.59352054  0.96366420  0.20392641     0.06470
O2161       O  0.99913603  0.92163257  0.22609924    -0.71400
O2162       O  0.00167056  0.50478916  0.22784092    -0.71610
O2163       O  0.54230737  0.96117311  0.22692509    -0.71470
O2164       O  0.95818437  0.96501906  0.22734459    -0.71480
O2165       O  0.95921735  0.96383834  0.27519188    -0.71440
O2166       O  0.54272559  0.95803352  0.27472796    -0.71460
O2167       O  0.00316169  0.50240092  0.27564910    -0.71400
O2168       O  0.99896679  0.91936686  0.27392027    -0.71590
V2169       V  0.00032237  0.96310996  0.22795540     1.35240
V2170       V  0.00097705  0.96095486  0.27391697     1.35170
C2171       C  0.99895951  0.90627936  0.24965955     0.77840
C2172       C  0.00279726  0.51782275  0.25208983     0.77900
C2173       C  0.55681577  0.95861066  0.25083265     0.77770
C2174       C  0.94438511  0.96545955  0.25149156     0.77730
O2175       O  0.77395864  0.96369948  0.04358045    -0.71400
O2176       O  0.77490790  0.96301625  0.45980290    -0.71610
O2177       O  0.77451327  0.50481901  0.00034392    -0.71470
O2178       O  0.77404443  0.92152785  0.00311909    -0.71480
O2179       O  0.72605875  0.92280239  0.00184189    -0.71440
O2180       O  0.72650792  0.50592222  0.99953180    -0.71460
O2181       O  0.72690825  0.96402442  0.45885258    -0.71400
O2182       O  0.72596918  0.96471812  0.04234236    -0.71590
V2183       V  0.77344376  0.96329099  0.00167624     1.35240
V2184       V  0.72731864  0.96434562  0.00066681     1.35170
C2185       C  0.74972487  0.96419565  0.05725217     0.77840
C2186       C  0.75106961  0.96335856  0.44503134     0.77900
C2187       C  0.75059046  0.51955889  0.99970845     0.77770
C2188       C  0.74986566  0.90792523  0.00276141     0.77730
O2189       O  0.95959498  0.68873335  0.99954371    -0.71400
O2190       O  0.54319365  0.69084493  0.00262718    -0.71610
O2191       O  0.00002993  0.69102373  0.04298755    -0.71470
O2192       O  0.50241178  0.68840019  0.45941957    -0.71480
O2193       O  0.49950321  0.73593874  0.45667817    -0.71440
O2194       O  0.49903303  0.73859584  0.04003589    -0.71460
O2195       O  0.54133477  0.73836090  0.99884558    -0.71400
O2196       O  0.95718172  0.73631083  0.99782934    -0.71590
V2197       V  0.50127367  0.69067996  0.00109742     1.35240
V2198       V  0.49931734  0.73638557  0.99841490     1.35170
C2199       C  0.94406914  0.71201954  0.99828000     0.77840
C2200       C  0.55662841  0.71493273  0.00098657     0.77900
C2201       C  0.49946450  0.71533615  0.05578872     0.77770
C2202       C  0.50094213  0.71169905  0.44379186     0.77730
C2203       C  0.64816549  0.94201360  0.17463558    -0.05400
C2204       C  0.65312308  0.96187093  0.19734828     0.00530
C2205       C  0.67685110  0.98171998  0.19505034    -0.08040
C2206       C  0.69718988  0.97808263  0.17239272    -0.05420
C2207       C  0.69375766  0.95651700  0.15119365     0.00520
C2208       C  0.66813613  0.93923631  0.15115319    -0.07950
C2209       C  0.66262881  0.91741977  0.12713948     0.62430
H2210       H  0.62951386  0.92748461  0.17636994     0.13120
H2211       H  0.71666870  0.99168052  0.17174671     0.13130
C2212       C  0.68237101  0.00624795  0.21640311     0.62660
F2213       F  0.63690148  0.90201208  0.13187157    -0.22510
F2214       F  0.68593173  0.89752292  0.12603938    -0.19830
F2215       F  0.65993343  0.93214627  0.10026353    -0.19510
F2216       F  0.70596513  0.99852054  0.23469946    -0.19560
F2217       F  0.65797193  0.01254222  0.23339871    -0.19890
F2218       F  0.68929322  0.03164672  0.20083286    -0.22560
C2219       C  0.85089634  0.95750311  0.17493753    -0.05400
C2220       C  0.84307498  0.95444643  0.20476892     0.00530
C2221       C  0.81455270  0.94393182  0.21110281    -0.08040
C2222       C  0.79305502  0.94581363  0.18906017    -0.05420
C2223       C  0.79986299  0.94839763  0.15866659     0.00520
C2224       C  0.83068352  0.95149042  0.15182024    -0.07950
C2225       C  0.84387641  0.94727999  0.12156362     0.62430
H2226       H  0.87310814  0.96415196  0.16951340     0.13120
H2227       H  0.77081515  0.94445520  0.19702444     0.13130
C2228       C  0.80559094  0.92914744  0.24006669     0.62660
F2229       F  0.87281658  0.93707651  0.12400743    -0.22510
F2230       F  0.84415371  0.97377907  0.10611512    -0.19830
F2231       F  0.82852389  0.92652951  0.10612256    -0.19510
F2232       F  0.78652663  0.94727781  0.25520649    -0.19560
F2233       F  0.82961384  0.92151090  0.25777392    -0.19890
F2234       F  0.79098361  0.90347316  0.23413182    -0.22560
C2235       C  0.82897024  0.00370642  0.31011314    -0.05400
C2236       C  0.85077947  0.98157962  0.30813193     0.00530
C2237       C  0.85085218  0.95774600  0.32898214    -0.08040
C2238       C  0.82732984  0.95557931  0.34903268    -0.05420
C2239       C  0.80393050  0.97600233  0.34859945     0.00520
C2240       C  0.80530417  0.00122985  0.32990158    -0.07950
C2241       C  0.78138461  0.02494493  0.33014082     0.62430
H2242       H  0.82925684  0.02178019  0.29420134     0.13120
H2243       H  0.82602832  0.93689161  0.36411131     0.13130
C2244       C  0.87461818  0.93379675  0.32932134     0.62660
F2245       F  0.78927107  0.04944661  0.31359868    -0.22510
F2246       F  0.77655507  0.03356924  0.35872998    -0.19830
F2247       F  0.75536959  0.01450724  0.31851289    -0.19510
F2248       F  0.90164753  0.94565736  0.33624196    -0.19560
F2249       F  0.87616941  0.92086267  0.30213218    -0.19890
F2250       F  0.86904660  0.91194064  0.35014142    -0.22560
C2251       C  0.67757201  0.97190759  0.34706329    -0.05400
C2252       C  0.69825918  0.94876261  0.34932432     0.00530
C2253       C  0.69486193  0.92389164  0.33159021    -0.08040
C2254       C  0.67249707  0.92445228  0.30997876    -0.05420
C2255       C  0.65328596  0.94868771  0.30599649     0.00520
C2256       C  0.65506384  0.97246589  0.32548830    -0.07950
C2257       C  0.63467276  0.49916470  0.32240825     0.62430
H2258       H  0.68054061  0.99057333  0.36104075     0.13120
H2259       H  0.67085815  0.90629101  0.29508385     0.13130
C2260       C  0.71459054  0.89672230  0.33388835     0.62660
F2261       F  0.64199329  0.52066297  0.34209482    -0.22510
F2262       F  0.60588038  0.99114775  0.32791814    -0.19830
F2263       F  0.63642546  0.51123250  0.29425747    -0.19510
F2264       F  0.69717040  0.87217638  0.33695496    -0.19560
F2265       F  0.73378536  0.89689017  0.35772564    -0.19890
F2266       F  0.73092670  0.89446248  0.30839756    -0.22560
C2267       C  0.50272264  0.64982927  0.20917050    -0.05400
C2268       C  0.99933908  0.62018552  0.20167250     0.00530
C2269       C  0.99701601  0.61448556  0.17071095    -0.08040
C2270       C  0.00030865  0.63825924  0.15010236    -0.05420
C2271       C  0.49962927  0.66774428  0.15887807     0.00520
C2272       C  0.49587195  0.67259072  0.18932580    -0.07950
C2273       C  0.48018330  0.69910393  0.20217516     0.62430
H2274       H  0.50714869  0.65613401  0.23153272     0.13120
H2275       H  0.00274590  0.63361138  0.12702976     0.13130
C2276       C  0.99109857  0.58450585  0.15832815     0.62660
F2277       F  0.95899738  0.68961505  0.22194235    -0.22510
F2278       F  0.96549971  0.71596589  0.18085159    -0.19830
F2279       F  0.50009822  0.71608160  0.21721738    -0.19510
F2280       F  0.96925225  0.57051367  0.17421768    -0.19560
F2281       F  0.51689143  0.56785400  0.15866974    -0.19890
F2282       F  0.48126093  0.58672269  0.12936929    -0.22560
C2283       C  0.98034348  0.77940228  0.15879669    -0.05400
C2284       C  0.00832500  0.77326185  0.14714747     0.00530
C2285       C  0.53293181  0.78965863  0.15591272    -0.08040
C2286       C  0.52927575  0.80996048  0.17852728    -0.05420
C2287       C  0.00188334  0.81367919  0.19240553     0.00520
C2288       C  0.97672703  0.79911875  0.18178361    -0.07950
C2289       C  0.94656757  0.80338792  0.19564763     0.62430
H2290       H  0.96173537  0.76677990  0.15135925     0.13120
H2291       H  0.54815166  0.82161383  0.18687303     0.13130
C2292       C  0.56282893  0.78492314  0.14188234     0.62660
F2293       F  0.92472283  0.78883509  0.18055773    -0.22510
F2294       F  0.93915203  0.83291168  0.19539893    -0.19830
F2295       F  0.94707385  0.79274741  0.22442378    -0.19510
F2296       F  0.56025869  0.78929680  0.11170344    -0.19560
F2297       F  0.57289445  0.75660994  0.14780290    -0.19890
F2298       F  0.58359792  0.80416351  0.15234119    -0.22560
C2299       C  0.52731683  0.76496772  0.32712064    -0.05400
C2300       C  0.50234826  0.76328362  0.34512419     0.00530
C2301       C  0.97996152  0.78528686  0.34263103    -0.08040
C2302       C  0.98253995  0.80727317  0.32049409    -0.05420
C2303       C  0.00667429  0.80774115  0.30123023     0.00520
C2304       C  0.53027333  0.78725345  0.30563244    -0.07950
C2305       C  0.55851680  0.78732433  0.28775123     0.62430
H2306       H  0.54448615  0.74819389  0.32948161     0.13120
H2307       H  0.96486230  0.82326297  0.31688983     0.13130
C2308       C  0.95282615  0.78467420  0.36210379     0.62660
F2309       F  0.58265480  0.78432828  0.30655607    -0.22510
F2310       F  0.56203375  0.81295398  0.27136381    -0.19830
F2311       F  0.55843223  0.76390091  0.26896084    -0.19510
F2312       F  0.96106299  0.78860515  0.39109822    -0.19560
F2313       F  0.93885071  0.75805895  0.35979705    -0.19890
F2314       F  0.93267242  0.80669089  0.35427323    -0.22560
C2315       C  0.97257597  0.61430241  0.32706909    -0.05400
C2316       C  0.99684512  0.61044620  0.30843289     0.00530
C2317       C  0.52244290  0.62763268  0.31228771    -0.08040
C2318       C  0.52181619  0.64977019  0.33306909    -0.05420
C2319       C  0.49684378  0.65514990  0.35022382     0.00520
C2320       C  0.97213879  0.63654432  0.34815956    -0.07950
C2321       C  0.94496530  0.64118209  0.36694180     0.62430
H2322       H  0.95326318  0.60102250  0.32363180     0.13120
H2323       H  0.54064615  0.66409210  0.33494162     0.13130
C2324       C  0.55030309  0.62508621  0.29391505     0.62660
F2325       F  0.92285421  0.62170176  0.36027350    -0.22510
F2326       F  0.93384794  0.66934768  0.36239629    -0.19830
F2327       F  0.95235562  0.63703901  0.39635694    -0.19510
F2328       F  0.55276344  0.64998583  0.27615733    -0.19560
F2329       F  0.55086693  0.60084762  0.27626731    -0.19890
F2330       F  0.57471177  0.62301558  0.31245217    -0.22560
C2331       C  0.67665110  0.61694341  0.48813627    -0.05400
C2332       C  0.69893092  0.61725006  0.00981169     0.00530
C2333       C  0.69740157  0.63834433  0.03221034    -0.08040
C2334       C  0.67561210  0.66049268  0.03006162    -0.05420
C2335       C  0.65468612  0.66162043  0.00706863     0.00520
C2336       C  0.65430350  0.63880731  0.48634777    -0.07950
C2337       C  0.63159975  0.63822463  0.46152685     0.62430
H2338       H  0.67802802  0.60039803  0.47146344     0.13120
H2339       H  0.67545912  0.67773398  0.04611774     0.13130
C2340       C  0.71863958  0.63905772  0.05824508     0.62660
F2341       F  0.63760619  0.61608149  0.44201406    -0.22510
F2342       F  0.63138172  0.66458814  0.44583984    -0.19830
F2343       F  0.60387395  0.63332586  0.97299523    -0.19510
F2344       F  0.73690146  0.66296595  0.55494964    -0.19560
F2345       F  0.73588554  0.61387351  0.06128014    -0.19890
F2346       F  0.70274985  0.64190574  0.08397150    -0.22560
C2347       C  0.83284863  0.65458810  0.47180226    -0.05400
C2348       C  0.85287258  0.65232524  0.99553080     0.00530
C2349       C  0.85213701  0.62787367  0.01510107    -0.08040
C2350       C  0.82880077  0.60806258  0.01233942    -0.05420
C2351       C  0.80669141  0.61242162  0.99067478     0.00520
C2352       C  0.80984010  0.63475536  0.46874157    -0.07950
C2353       C  0.78876266  0.63954468  0.44280251     0.62430
H2354       H  0.83410939  0.67319415  0.45654474     0.13120
H2355       H  0.82633431  0.59043657  0.02850489     0.13130
C2356       C  0.87500551  0.62373459  0.03945944     0.62660
F2357       F  0.80485029  0.64328853  0.91722104    -0.22510
F2358       F  0.77184505  0.66451209  0.94710483    -0.19830
F2359       F  0.77018679  0.61615441  0.43877678    -0.19510
F2360       F  0.87393940  0.64728920  0.05805791    -0.19560
F2361       F  0.90284545  0.62179347  0.52722574    -0.19890
F2362       F  0.87037140  0.59840655  0.55601497    -0.22560
C2363       C  0.84969443  0.78629346  0.50032895    -0.05400
C2364       C  0.84023066  0.75772667  0.00858764     0.00530
C2365       C  0.80961503  0.75521209  0.01624863    -0.08040
C2366       C  0.79415797  0.78065932  0.02377838    -0.05420
C2367       C  0.80127148  0.80779559  0.01075871     0.00520
C2368       C  0.83017817  0.81094438  0.49911341    -0.07950
C2369       C  0.84078649  0.83954572  0.48532201     0.62430
H2370       H  0.87188029  0.78929344  0.49260149     0.13120
H2371       H  0.77255320  0.77822346  0.03368722     0.13130
C2372       C  0.78957977  0.72980295  0.00810922     0.62660
F2373       F  0.86776803  0.83606888  0.97154707    -0.22510
F2374       F  0.84439428  0.85997990  0.00700612    -0.19830
F2375       F  0.82071808  0.85001836  0.46433207    -0.19510
F2376       F  0.78537821  0.71137816  0.03232424    -0.19560
F2377       F  0.80061248  0.71458865  0.48462603    -0.19890
F2378       F  0.76182969  0.73994669  0.49918399    -0.22560
C2379       C  0.67973269  0.80872958  0.01664429    -0.05400
C2380       C  0.69460132  0.81437059  0.99014202     0.00530
C2381       C  0.68644855  0.79929539  0.46451630    -0.08040
C2382       C  0.66512298  0.77718836  0.46685375    -0.05420
C2383       C  0.65203522  0.76991185  0.99393633     0.00520
C2384       C  0.65862080  0.78647110  0.01907607    -0.07950
C2385       C  0.64463291  0.77945856  0.04867065     0.62430
H2386       H  0.68644282  0.82045265  0.03600450     0.13120
H2387       H  0.65969952  0.76425516  0.44790504     0.13130
C2388       C  0.70071502  0.80620451  0.43507476     0.62660
F2389       F  0.65430456  0.79796165  0.07035500    -0.22510
F2390       F  0.65172065  0.75096082  0.05748369    -0.19830
F2391       F  0.61425240  0.78253669  0.04634056    -0.19510
F2392       F  0.73034168  0.79837560  0.43598405    -0.19560
F2393       F  0.69800146  0.83593741  0.42875097    -0.19890
F2394       F  0.68748007  0.79128175  0.41240743    -0.22560
C2395       C  0.74926518  0.87551132  0.00222952     0.03510
C2396       C  0.72261135  0.86134331  0.99561740    -0.12640
C2397       C  0.72240422  0.83106791  0.49194494     0.01010
C2398       C  0.74884376  0.81515784  0.49450676    -0.11160
C2399       C  0.77533847  0.82803772  0.50384322     0.03500
C2400       C  0.77518746  0.85853593  0.00783170    -0.10580
H2401       H  0.70208810  0.87374253  0.99319361     0.09100
H2402       H  0.74812671  0.79187950  0.49075382     0.06630
H2403       H  0.79467157  0.86919501  0.01575202     0.06470
C2404       C  0.91147540  0.71023980  0.49850518     0.03510
C2405       C  0.89299573  0.73505703  0.50303638    -0.12760
C2406       C  0.86211391  0.73184724  0.50790567     0.01010
C2407       C  0.85270976  0.70292027  0.51236955    -0.11160
C2408       C  0.86905740  0.67914441  0.50232355     0.03500
C2409       C  0.89858493  0.68271057  0.49535155    -0.10580
H2410       H  0.90325991  0.75620457  0.50391997     0.09100
H2411       H  0.83211393  0.69787516  0.52225935     0.06630
H2412       H  0.91154995  0.66400066  0.48837791     0.06470
C2413       C  0.75092332  0.55190612  0.49943365     0.03510
C2414       C  0.77770460  0.56643598  0.49489316    -0.12640
C2415       C  0.77856823  0.59701567  0.49478617     0.01010
C2416       C  0.75272159  0.61323313  0.50011205    -0.11160
C2417       C  0.72586287  0.59915994  0.50510035     0.03500
C2418       C  0.72488441  0.56843917  0.50421102    -0.10580
H2419       H  0.79792352  0.55407583  0.49116602     0.09100
H2420       H  0.75353393  0.63696730  0.50043283     0.06630
H2421       H  0.70405980  0.55754074  0.50780268     0.06470
C2422       C  0.58935453  0.71550802  0.50110536     0.03510
C2423       C  0.60442520  0.74207089  0.49685544    -0.12640
C2424       C  0.63541957  0.74226039  0.49639256     0.01010
C2425       C  0.65130512  0.71573076  0.49903994    -0.11160
C2426       C  0.63672026  0.68906725  0.50333980     0.03500
C2427       C  0.60578931  0.68921231  0.50515166    -0.10580
H2428       H  0.59220689  0.76257497  0.49413083     0.09100
H2429       H  0.67525936  0.71591788  0.49827160     0.06630
H2430       H  0.59454758  0.66893730  0.51002057     0.06470
C2431       C  0.50023598  0.71069248  0.91131105     0.03510
C2432       C  0.49825017  0.68371752  0.89701819    -0.12640
C2433       C  0.49616815  0.68304019  0.86622460     0.01010
C2434       C  0.49645798  0.70941562  0.84976154    -0.11160
C2435       C  0.49920424  0.73634264  0.86360661     0.03500
C2436       C  0.50132329  0.73688243  0.89436085    -0.10580
H2437       H  0.49884279  0.66332212  0.90971559     0.09100
H2438       H  0.49543410  0.70890881  0.82589560     0.06630
H2439       H  0.50448277  0.75759869  0.90500595     0.06470
C2440       C  0.99955525  0.87388056  0.74878352     0.03510
C2441       C  0.00157132  0.85685258  0.77507132    -0.12640
C2442       C  0.00403989  0.82620008  0.77407551     0.01010
C2443       C  0.00349281  0.81255152  0.74680446    -0.11160
C2444       C  0.00119914  0.82911265  0.72058752     0.03500
C2445       C  0.99947863  0.85973490  0.72151683    -0.10580
H2446       H  0.00193696  0.86732667  0.79624063     0.09100
H2447       H  0.00503921  0.78883578  0.74595093     0.06630
H2448       H  0.99821298  0.87238555  0.70102781     0.06470
C2449       C  0.50089195  0.71689040  0.58826833     0.03510
C2450       C  0.50491926  0.74424954  0.60121593    -0.12640
C2451       C  0.51146662  0.74565148  0.63114323     0.01010
C2452       C  0.51478117  0.71974368  0.64783294    -0.11160
C2453       C  0.50452196  0.69296561  0.63727224     0.03500
C2454       C  0.49887052  0.69147193  0.60662273    -0.10580
H2455       H  0.50322976  0.76441201  0.58816358     0.09100
H2456       H  0.52247001  0.72135567  0.67026401     0.06630
H2457       H  0.49267065  0.67104865  0.59689414     0.06470
C2458       C  0.00182590  0.55024839  0.75312894     0.03510
C2459       C  0.00325122  0.56800344  0.72714111    -0.12640
C2460       C  0.99613169  0.59838552  0.72754975     0.01010
C2461       C  0.98746304  0.60944218  0.75511056    -0.11160
C2462       C  0.99275095  0.59369556  0.78130689     0.03500
C2463       C  0.99864147  0.56372640  0.78044271    -0.10580
H2464       H  0.01014119  0.55764942  0.70738808     0.09100
H2465       H  0.97872252  0.63145973  0.75720838     0.06630
H2466       H  0.00097116  0.55117189  0.80091386     0.06470
C2467       C  0.75131347  0.96272517  0.91246398     0.03510
C2468       C  0.72540889  0.95578351  0.89690276    -0.12640
C2469       C  0.72563931  0.95414661  0.86614285     0.01010
C2470       C  0.75160465  0.96027213  0.85076611    -0.11160
C2471       C  0.77713681  0.96879216  0.86573385     0.03500
C2472       C  0.77720818  0.96920481  0.89666084    -0.10580
H2473       H  0.70512507  0.95130270  0.90861049     0.09100
H2474       H  0.75172089  0.95903641  0.82693946     0.06630
H2475       H  0.79721469  0.97505834  0.90825654     0.06470
C2476       C  0.91180518  0.96829387  0.75235949     0.03510
C2477       C  0.89803510  0.97709745  0.77853477    -0.12640
C2478       C  0.86723600  0.97981089  0.77988538     0.01010
C2479       C  0.85071874  0.97677750  0.75401959    -0.11160
C2480       C  0.86321616  0.96447801  0.72882856     0.03500
C2481       C  0.89420338  0.96108906  0.72783507    -0.10580
H2482       H  0.91118974  0.98160340  0.79785491     0.09100
H2483       H  0.82722294  0.98129171  0.75455798     0.06630
H2484       H  0.90459037  0.95212059  0.70856106     0.06470
C2485       C  0.74876641  0.96188705  0.58975819     0.03510
C2486       C  0.77481622  0.95918790  0.60711699    -0.12640
C2487       C  0.77383067  0.94853414  0.63675195     0.01010
C2488       C  0.74550868  0.94049437  0.64696817    -0.11160
C2489       C  0.71978696  0.95064307  0.63273081     0.03500
C2490       C  0.72128280  0.96069286  0.60368545    -0.10580
H2491       H  0.79498820  0.96563759  0.59692511     0.09100
H2492       H  0.74228574  0.92857528  0.66742379     0.06630
H2493       H  0.70126153  0.96743794  0.59202069     0.06470
C2494       C  0.58939304  0.95644506  0.75102419     0.03510
C2495       C  0.60497897  0.95169188  0.77775875    -0.12640
C2496       C  0.63594596  0.95082880  0.77818041     0.01010
C2497       C  0.65124454  0.95319107  0.75159262    -0.11160
C2498       C  0.63610982  0.95833380  0.72487112     0.03500
C2499       C  0.60516806  0.95968994  0.72462130    -0.10580
H2500       H  0.59311510  0.94874786  0.79820209     0.09100
H2501       H  0.67519086  0.95186565  0.75181018     0.06630
H2502       H  0.59351893  0.96366725  0.70392799     0.06470
O2503       O  0.99913443  0.92162898  0.72610640    -0.71400
O2504       O  0.00166876  0.50478620  0.72783152    -0.71610
O2505       O  0.54230581  0.96116962  0.72692511    -0.71470
O2506       O  0.95818274  0.96501577  0.72734217    -0.71480
O2507       O  0.95921494  0.96384311  0.77518944    -0.71440
O2508       O  0.54272328  0.95803837  0.77472833    -0.71460
O2509       O  0.00315901  0.50240581  0.77563991    -0.71400
O2510       O  0.99896457  0.91937128  0.77392762    -0.71590
V2511       V  0.00032078  0.96310666  0.72795423     1.35240
V2512       V  0.00097466  0.96095956  0.77391599     1.35170
C2513       C  0.99895749  0.90627971  0.74966932     0.77840
C2514       C  0.00279462  0.51782382  0.75207812     0.77900
C2515       C  0.55681385  0.95861129  0.75083323     0.77770
C2516       C  0.94438304  0.96546038  0.75148873     0.77730
O2517       O  0.77395216  0.96373018  0.54357997    -0.71400
O2518       O  0.77491373  0.96298468  0.95980292    -0.71610
O2519       O  0.77450483  0.50485048  0.50034375    -0.71470
O2520       O  0.77403950  0.92155941  0.50311798    -0.71480
O2521       O  0.72605380  0.92283170  0.50184005    -0.71440
O2522       O  0.72649945  0.50595165  0.49953185    -0.71460
O2523       O  0.72691408  0.96399445  0.95885345    -0.71400
O2524       O  0.72596267  0.96474633  0.54234201    -0.71590
V2525       V  0.77343729  0.96332242  0.50167587     1.35240
V2526       V  0.72731214  0.96437504  0.50066614     1.35170
C2527       C  0.74971850  0.96422388  0.55725181     0.77840
C2528       C  0.75107508  0.96332866  0.94503170     0.77900
C2529       C  0.75058136  0.51958934  0.49970790     0.77770
C2530       C  0.74986137  0.90795568  0.50275927     0.77730
O2531       O  0.95958377  0.68876190  0.49954535    -0.71400
O2532       O  0.54318365  0.69087367  0.50262641    -0.71610
O2533       O  0.00002028  0.69105058  0.54298664    -0.71470
O2534       O  0.50242323  0.68837397  0.95941816    -0.71480
O2535       O  0.49951766  0.73591275  0.95667955    -0.71440
O2536       O  0.49902586  0.73862281  0.54003683    -0.71460
O2537       O  0.54132385  0.73838941  0.49884184    -0.71400
O2538       O  0.95717072  0.73633941  0.49783353    -0.71590
V2539       V  0.50126304  0.69070771  0.50109769     1.35240
V2540       V  0.49930645  0.73641326  0.49841480     1.35170
C2541       C  0.94405792  0.71204845  0.49828419     0.77840
C2542       C  0.55661812  0.71496183  0.50098395     0.77900
C2543       C  0.49945679  0.71536211  0.55578870     0.77770
C2544       C  0.50095525  0.71167420  0.94379183     0.77730
C2545       C  0.64816369  0.94201883  0.67463564    -0.05400
C2546       C  0.65312113  0.96187438  0.69734998     0.00530
C2547       C  0.67684843  0.98172439  0.69505333    -0.08040
C2548       C  0.69718662  0.97808994  0.67239471    -0.05420
C2549       C  0.69375437  0.95652637  0.65119355     0.00520
C2550       C  0.66813375  0.93924447  0.65115240    -0.07950
C2551       C  0.66262697  0.91742971  0.62713695     0.62430
H2552       H  0.62951267  0.92748900  0.67636918     0.13120
H2553       H  0.71666491  0.99168858  0.67174935     0.13130
C2554       C  0.68236817  0.00625038  0.71640844     0.62660
F2555       F  0.63690004  0.90202103  0.63186783    -0.22510
F2556       F  0.68593042  0.89753359  0.62603537    -0.19830
F2557       F  0.65993134  0.93215819  0.60026208    -0.19510
F2558       F  0.70596213  0.99852134  0.73470434    -0.19560
F2559       F  0.65796892  0.01254304  0.73340438    -0.19890
F2560       F  0.68929049  0.03165055  0.70084060    -0.22560
C2561       C  0.85089293  0.95751080  0.67493261    -0.05400
C2562       C  0.84307223  0.95445173  0.70476409     0.00530
C2563       C  0.81454984  0.94393700  0.71109765    -0.08040
C2564       C  0.79305146  0.94582179  0.68905581    -0.05420
C2565       C  0.79985885  0.94840859  0.65866238     0.00520
C2566       C  0.83067912  0.95150060  0.65181539    -0.07950
C2567       C  0.84387062  0.94729034  0.62155819     0.62430
H2568       H  0.87310497  0.96415878  0.66950826     0.13120
H2569       H  0.77081151  0.94446312  0.69702011     0.13130
C2570       C  0.80558884  0.92914917  0.74006004     0.62660
F2571       F  0.87280820  0.93707924  0.62400130    -0.22510
F2572       F  0.84415448  0.97379095  0.60611279    -0.19830
F2573       F  0.82851269  0.92654589  0.60611421    -0.19510
F2574       F  0.78652472  0.94727751  0.75520243    -0.19560
F2575       F  0.82961221  0.92151081  0.75776595    -0.19890
F2576       F  0.79098161  0.90347553  0.73412235    -0.22560
C2577       C  0.82896707  0.00369879  0.81011417    -0.05400
C2578       C  0.85077772  0.98157373  0.80813016     0.00530
C2579       C  0.85085278  0.95773820  0.82897825    -0.08040
C2580       C  0.82733115  0.95556789  0.84902922    -0.05420
C2581       C  0.80393032  0.97598916  0.84859852     0.00520
C2582       C  0.80530182  0.00121871  0.82990315    -0.07950
C2583       C  0.78138092  0.02493236  0.83014545     0.62430
H2584       H  0.82925194  0.02177413  0.79420410     0.13120
H2585       H  0.82603140  0.93687871  0.86410618     0.13130
C2586       C  0.87462051  0.93379066  0.82931483     0.62660
F2587       F  0.78926685  0.04943719  0.81360783    -0.22510
F2588       F  0.77654959  0.03355161  0.85873593    -0.19830
F2589       F  0.75536704  0.01449529  0.81851442    -0.19510
F2590       F  0.90164906  0.94565251  0.83623635    -0.19560
F2591       F  0.87617230  0.92085930  0.80212434    -0.19890
F2592       F  0.86905082  0.91193216  0.85013292    -0.22560
C2593       C  0.67757346  0.97189608  0.84706563    -0.05400
C2594       C  0.69825905  0.94874950  0.84932413     0.00530
C2595       C  0.69485958  0.92388056  0.83158760    -0.08040
C2596       C  0.67249390  0.92444459  0.80997691    -0.05420
C2597       C  0.65328437  0.94868160  0.80599725     0.00520
C2598       C  0.65506467  0.97245788  0.82549113    -0.07950
C2599       C  0.63467546  0.49915827  0.82241378     0.62430
H2600       H  0.68054384  0.99056032  0.86104471     0.13120
H2601       H  0.67085331  0.90628485  0.79508031     0.13130
C2602       C  0.71458679  0.89671003  0.83388211     0.62660
F2603       F  0.64199767  0.52065405  0.84210250    -0.22510
F2604       F  0.60588252  0.99114276  0.82792294    -0.19830
F2605       F  0.63642883  0.51122860  0.79426411    -0.19510
F2606       F  0.69716542  0.87216487  0.83694760    -0.19560
F2607       F  0.73378325  0.89687471  0.85771824    -0.19890
F2608       F  0.73092116  0.89445161  0.80839003    -0.22560
C2609       C  0.50272998  0.64983021  0.70915925    -0.05400
C2610       C  0.99934178  0.62018815  0.70165723     0.00530
C2611       C  0.99701763  0.61449269  0.67069492    -0.08040
C2612       C  0.00030851  0.63826964  0.65008948    -0.05420
C2613       C  0.49963080  0.66775335  0.65886998     0.00520
C2614       C  0.49587763  0.67259496  0.68931907    -0.07950
C2615       C  0.48019058  0.69910596  0.70217460     0.62430
H2616       H  0.50715856  0.65613074  0.73152240     0.13120
H2617       H  0.00274367  0.63362568  0.62701578     0.13130
C2618       C  0.99110297  0.58451389  0.65830894     0.62660
F2619       F  0.95900680  0.68961392  0.72194270    -0.22510
F2620       F  0.96550446  0.71597123  0.68085526    -0.19830
F2621       F  0.50010727  0.71608117  0.71721736    -0.19510
F2622       F  0.96925329  0.57052112  0.67419323    -0.19560
F2623       F  0.51689581  0.56786201  0.65865561    -0.19890
F2624       F  0.48127189  0.58673198  0.62934799    -0.22560
C2625       C  0.98034270  0.77940807  0.65880781    -0.05400
C2626       C  0.00832420  0.77327143  0.64715665     0.00530
C2627       C  0.53293081  0.78966667  0.65592517    -0.08040
C2628       C  0.52927441  0.80996368  0.67854383    -0.05420
C2629       C  0.00188208  0.81367847  0.69242313     0.00520
C2630       C  0.97672609  0.79911913  0.68179922    -0.07950
C2631       C  0.94656699  0.80338388  0.69566533     0.62430
H2632       H  0.96173489  0.76678667  0.65136792     0.13120
H2633       H  0.54814985  0.82161667  0.68689119     0.13130
C2634       C  0.56282789  0.78493487  0.64189350     0.62660
F2635       F  0.92472259  0.78883203  0.68057395    -0.22510
F2636       F  0.93914935  0.83290706  0.69542194    -0.19830
F2637       F  0.94707544  0.79273860  0.72443980    -0.19510
F2638       F  0.56025724  0.78931485  0.61171540    -0.19560
F2639       F  0.57289410  0.75662080  0.64780798    -0.19890
F2640       F  0.58359656  0.80417341  0.65235639    -0.22560
C2641       C  0.52732322  0.76496685  0.82713119    -0.05400
C2642       C  0.50235481  0.76327779  0.84513438     0.00530
C2643       C  0.97996710  0.78528046  0.84264569    -0.08040
C2644       C  0.98254359  0.80727057  0.82051208    -0.05420
C2645       C  0.00667734  0.80774294  0.80124755     0.00520
C2646       C  0.53027800  0.78725646  0.80564675    -0.07950
C2647       C  0.55852127  0.78733237  0.78776532     0.62430
H2648       H  0.54449359  0.74819374  0.82948907     0.13120
H2649       H  0.96486461  0.82325939  0.81691033     0.13130
C2650       C  0.95283277  0.78466315  0.86211969     0.62660
F2651       F  0.58265961  0.78433698  0.80656979    -0.22510
F2652       F  0.56203514  0.81296420  0.77138059    -0.19830
F2653       F  0.55843924  0.76391101  0.76897232    -0.19510
F2654       F  0.96107118  0.78858744  0.89111481    -0.19560
F2655       F  0.93885742  0.75804843  0.85980752    -0.19890
F2656       F  0.93267858  0.80668139  0.85429513    -0.22560
C2657       C  0.97257388  0.61430218  0.82705294    -0.05400
C2658       C  0.99684147  0.61044807  0.80841441     0.00530
C2659       C  0.52244034  0.62763285  0.81226964    -0.08040
C2660       C  0.52181646  0.64976642  0.83305509    -0.05420
C2661       C  0.49684581  0.65514393  0.85021289     0.00520
C2662       C  0.97213949  0.63654034  0.84814720    -0.07950
C2663       C  0.94496775  0.64117620  0.86693240     0.62430
H2664       H  0.95326048  0.60102320  0.82361535     0.13120
H2665       H  0.54064737  0.66408695  0.83492890     0.13130
C2666       C  0.55029938  0.62508812  0.79389493     0.62660
F2667       F  0.92285492  0.62169849  0.86026205    -0.22510
F2668       F  0.93385179  0.66934312  0.86239289    -0.19830
F2669       F  0.95236011  0.63702730  0.89634637    -0.19510
F2670       F  0.55276136  0.64999165  0.77614312    -0.19560
F2671       F  0.55086024  0.60085408  0.77624099    -0.19890
F2672       F  0.57470876  0.62301082  0.81243065    -0.22560
C2673       C  0.67666193  0.61691340  0.98813719    -0.05400
C2674       C  0.69892076  0.61728053  0.50981004     0.00530
C2675       C  0.69739278  0.63837603  0.53220761    -0.08040
C2676       C  0.67560324  0.66052431  0.53005899    -0.05420
C2677       C  0.65467655  0.66165149  0.50706663     0.00520
C2678       C  0.65431382  0.63877682  0.98634912    -0.07950
C2679       C  0.63161004  0.63819416  0.96152827     0.62430
H2680       H  0.67803959  0.60036869  0.97146375     0.13120
H2681       H  0.67545099  0.67776620  0.54611447     0.13130
C2682       C  0.71863247  0.63909108  0.55824087     0.62660
F2683       F  0.63761641  0.61605102  0.94201545    -0.22510
F2684       F  0.63139194  0.66455770  0.94584134    -0.19830
F2685       F  0.60386361  0.63335632  0.47299368    -0.19510
F2686       F  0.73690955  0.66293208  0.05495607    -0.19560
F2687       F  0.73587944  0.61390754  0.56127574    -0.19890
F2688       F  0.70274437  0.64193964  0.58396822    -0.22560
C2689       C  0.83286470  0.65455529  0.97181729    -0.05400
C2690       C  0.85286381  0.65235244  0.49550956     0.00530
C2691       C  0.85213084  0.62789881  0.51507752    -0.08040
C2692       C  0.82879325  0.60808907  0.51231831    -0.05420
C2693       C  0.80667883  0.61245216  0.49065949     0.00520
C2694       C  0.80985723  0.63472156  0.96875428    -0.07950
C2695       C  0.78878558  0.63950626  0.94280976     0.62430
H2696       H  0.83413100  0.67315698  0.95655497     0.13120
H2697       H  0.82632947  0.59046137  0.52848235     0.13130
C2698       C  0.87500195  0.62375749  0.53943337     0.62660
F2699       F  0.80482166  0.64333163  0.41721081    -0.22510
F2700       F  0.77182323  0.66454960  0.44710578    -0.19830
F2701       F  0.77021048  0.61611536  0.93878413    -0.19510
F2702       F  0.87393729  0.64730994  0.55803470    -0.19560
F2703       F  0.90285022  0.62176876  0.02725468    -0.19890
F2704       F  0.87037287  0.59838542  0.05604312    -0.22560
C2705       C  0.84970772  0.78627425  0.00033967    -0.05400
C2706       C  0.84021823  0.75775303  0.50860502     0.00530
C2707       C  0.80960690  0.75525028  0.51629472    -0.08040
C2708       C  0.79416074  0.78070830  0.52381269    -0.05420
C2709       C  0.80127204  0.80783251  0.51076779     0.00520
C2710       C  0.83018517  0.81092069  0.99912408    -0.07950
C2711       C  0.84079680  0.83952971  0.98535199     0.62430
H2712       H  0.87189984  0.78928612  0.99263730     0.13120
H2713       H  0.77256118  0.77828824  0.53373729     0.13130
C2714       C  0.78955882  0.72983591  0.50820048     0.62660
F2715       F  0.86775325  0.83607666  0.47151072    -0.22510
F2716       F  0.84439099  0.86000790  0.50696345    -0.19830
F2717       F  0.82073528  0.85001271  0.96436042    -0.19510
F2718       F  0.78541235  0.71141162  0.53242634    -0.19560
F2719       F  0.80067983  0.71455205  0.98455902    -0.19890
F2720       F  0.76187292  0.73992370  0.99903484    -0.22560
C2721       C  0.67973067  0.80875526  0.51664816    -0.05400
C2722       C  0.69460110  0.81439604  0.49014683     0.00530
C2723       C  0.68645012  0.79926741  0.96451263    -0.08040
C2724       C  0.66512793  0.77715766  0.96685233    -0.05420
C2725       C  0.65202758  0.76994285  0.49393666     0.00520
C2726       C  0.65861499  0.78649982  0.51907760    -0.07950
C2727       C  0.64462457  0.77948802  0.54867106     0.62430
H2728       H  0.68644137  0.82047663  0.53600923     0.13120
H2729       H  0.65970523  0.76422275  0.94790460     0.13130
C2730       C  0.70071460  0.80617654  0.93507006     0.62660
F2731       F  0.65429716  0.79798929  0.57035660    -0.22510
F2732       F  0.65170846  0.75098926  0.55748355    -0.19830
F2733       F  0.61424448  0.78256978  0.54633915    -0.19510
F2734       F  0.73034159  0.79834890  0.93597739    -0.19560
F2735       F  0.69799940  0.83590921  0.92874577    -0.19890
F2736       F  0.68747885  0.79125272  0.91240393    -0.22560
loop_ 
_geom_bond_atom_site_label_1 
_geom_bond_atom_site_label_2 
_geom_bond_distance 
_geom_bond_site_symmetry_2 
_ccdc_geom_bond_type 
C1            C2   1.410       .  A
C1            C6   1.414       .  A
C1          C478   1.480       .  S
C2          C345   1.397       .  A
C2            H7   1.083       .  S
C3            C4   1.392       .  A
C3          C344   1.397       .  A
C3          C328   1.482       .  S
C4            C5   1.409   1_556  A
C4            H8   1.080       .  S
C5          C348   1.409       .  A
C5          C315   1.508       .  S
C6          C347   1.409       .  A
C6            H9   1.077       .  S
C10          C11   1.417   1_556  A
C10          C15   1.403       .  A
C10         C147   1.478       .  S
C11          C12   1.425       .  A
C11          H16   1.078       .  S
C12          C13   1.403       .  A
C12         C312   1.532       .  S
C13          C14   1.392       .  A
C13          H17   1.063       .  S
C14          C15   1.386   1_554  A
C14         C296   1.472   1_554  S
C15          H18   1.083       .  S
C19          C20   1.404       .  A
C19          C24   1.410   1_556  A
C19         C135   1.474       .  S
C20          C21   1.396       .  A
C20          H25   1.084       .  S
C21          C22   1.400   1_556  A
C21         C299   1.474       .  S
C22          C23   1.400       .  A
C22          H26   1.084       .  S
C23          C24   1.404       .  A
C23         C280   1.482       .  S
C24          H27   1.083       .  S
C28          C29   1.409   1_554  A
C28          C33   1.409       .  A
C28         C148   1.481       .  S
C29          C30   1.403       .  A
C29          H34   1.083       .  S
C30          C31   1.400       .  A
C30         C331   1.481       .  S
C31          C32   1.403   1_556  A
C31          H35   1.085       .  S
C32          C33   1.402       .  A
C32         C283   1.487       .  S
C33          H36   1.081       .  S
C37          C38   1.409   1_455  A
C37          C42   1.407       .  A
C37         C150   1.476       .  S
C38          C39   1.401       .  A
C38          H43   1.083       .  S
C39          C40   1.401       .  A
C39         C267   1.481       .  S
C40          C41   1.400       .  A
C40          H44   1.085       .  S
C41          C42   1.399   1_655  A
C41         C248   1.480   1_655  S
C42          H45   1.083       .  S
C46          C47   1.410       .  A
C46          C51   1.409       .  A
C46         C119   1.479       .  S
C47          C48   1.403       .  A
C47          H52   1.083       .  S
C48          C49   1.399       .  A
C48         C251   1.480       .  S
C49          C50   1.397       .  A
C49          H53   1.085       .  S
C50          C51   1.400       .  A
C50         C235   1.475       .  S
C51          H54   1.083       .  S
C55          C56   1.406       .  A
C55          C60   1.416   1_455  A
C55         C149   1.479   1_455  S
C56          C57   1.391       .  A
C56          H61   1.084       .  S
C57          C58   1.394       .  A
C57        C1600   1.475       .  S
C58          C59   1.407       .  A
C58          H62   1.078       .  S
C59          C60   1.416   1_455  A
C59         C219   1.513   1_455  S
C60          H63   1.080       .  S
C64          C65   1.417       .  A
C64          C69   1.405       .  A
C64         C120   1.481       .  S
C65          C66   1.419       .  A
C65          H70   1.070       .  S
C66          C67   1.416       .  A
C66         C216   1.531       .  S
C67          C68   1.392       .  A
C67          H71   1.080       .  S
C68          C69   1.390       .  A
C68         C264   1.476       .  S
C69          H72   1.083       .  S
C73          C74   1.408       .  A
C73          C78   1.410       .  A
C73         C134   1.479       .  S
C74          C75   1.400       .  A
C74          H79   1.084       .  S
C75          C76   1.400       .  A
C75         C200   1.477       .  S
C76          C77   1.400       .  A
C76          H80   1.084       .  S
C77          C78   1.404       .  A
C77         C187   1.482       .  S
C78          H81   1.084       .  S
C82          C83   1.410       .  A
C82          C87   1.412       .  A
C82         C122   1.478       .  S
C83          C84   1.399       .  A
C83          H88   1.081       .  S
C84          C85   1.398       .  A
C84         C184   1.491       .  S
C85          C86   1.405       .  A
C85          H89   1.080       .  S
C86          C87   1.409       .  A
C86         C168   1.501       .  S
C87          H90   1.082       .  S
C91          C92   1.415       .  A
C91          C96   1.400       .  A
C91         C133   1.478       .  S
C92          C93   1.421       .  A
C92          H97   1.068       .  S
C93          C94   1.417       .  A
C93         C171   1.535       .  S
C94          C95   1.394       .  A
C94          H98   1.077       .  S
C95          C96   1.388       .  A
C95         C155   1.476       .  S
C96          H99   1.082       .  S
C100        C101   1.409       .  A
C100        C105   1.406       .  A
C100        C121   1.476       .  S
C101        C102   1.401       .  A
C101        H106   1.082       .  S
C102        C103   1.399       .  A
C102        C203   1.482       .  S
C103        C104   1.401       .  A
C103        H107   1.084       .  S
C104        C105   1.400       .  A
C104        C152   1.479       .  S
C105        H108   1.084       .  S
O109        V117   1.898       .  S
O109        C119   1.264       .  A
O110        V801   1.903   1_545  S
O110        C120   1.265       .  A
O111       V1485   1.901       .  S
O111        C121   1.266       .  A
O112        V117   1.907       .  S
O112        C122   1.266       .  A
O113        V118   1.893       .  S
O113        C122   1.263       .  A
O114       V1486   1.891       .  S
O114        C121   1.262       .  A
O115        V802   1.898   1_545  S
O115        C120   1.266       .  A
O116        V118   1.901       .  S
O116        C119   1.265       .  A
V117        O794   1.903       .  S
V117       O1479   1.901       .  S
V117        V118   2.086       .  T
V118       O1482   1.891       .  S
V118        O799   1.898       .  S
O123        V131   1.903       .  S
O123        C133   1.264       .  A
O124        V473   1.903       .  S
O124        C134   1.265       .  A
O125        V815   1.895   1_545  S
O125        C135   1.265   1_554  A
O126        V131   1.905       .  S
O126        C136   1.266       .  A
O127        V132   1.896       .  S
O127        C136   1.264       .  A
O128        V816   1.896   1_546  S
O128        C135   1.263       .  A
O129        V474   1.898       .  S
O129        C134   1.265       .  A
O130        V132   1.894       .  S
O130        C133   1.265       .  A
V131        O466   1.903   1_554  S
V131        O809   1.895       .  S
V131        V132   2.087       .  T
V132        O812   1.896   1_554  S
V132        O471   1.898   1_554  S
C136        C343   1.480       .  S
O137       V1513   1.890   1_556  S
O137        C147   1.265       .  A
O138        V145   1.897       .  S
O138        C148   1.265       .  A
O139       V1513   1.903       .  S
O139       C1517   1.264       .  A
O140        V487   1.898       .  S
O140        C150   1.264       .  A
O141        V488   1.895       .  S
O141        C150   1.264   1_655  A
O142        V146   1.895   1_554  S
O142        C149   1.265       .  A
O143        V146   1.904   1_455  S
O143        C148   1.266   1_556  A
O144       V1514   1.906       .  S
O144        C147   1.265       .  A
V145       O1505   1.890   1_454  S
V145       O1507   1.903       .  S
V145        O482   1.898   1_554  S
V145        V146   2.086   1_454  T
V146        O483   1.895       .  S
V146       O1512   1.906       .  S
C149       O1507   1.264   1_655  A
C151        C152   1.407       .  A
C151        C156   1.410       .  A
C151        H158   1.083       .  S
C152        C153   1.418       .  A
C153        C154   1.397       .  A
C153        C160   1.520       .  S
C154        C155   1.402       .  A
C154        H159   1.085       .  S
C155        C156   1.412       .  A
C156        C157   1.515       .  S
C157        F161   1.384       .  S
C157        F162   1.383       .  S
C157        F163   1.382       .  S
C160        F164   1.383       .  S
C160        F165   1.382       .  S
C160        F166   1.384       .  S
C167        C168   1.407       .  A
C167        C172   1.421       .  A
C167        H174   1.083       .  S
C168        C169   1.413       .  A
C169        C170   1.390       .  A
C169        C176   1.524       .  S
C170        C171   1.419       .  A
C170        H175   1.074       .  S
C171        C172   1.439       .  A
C172        C173   1.517       .  S
C173        F177   1.386       .  S
C173        F178   1.383       .  S
C173        F179   1.383       .  S
C176        F180   1.384       .  S
C176        F181   1.382       .  S
C176        F182   1.384       .  S
C183        C184   1.406       .  A
C183        C188   1.407       .  A
C183        H190   1.083       .  S
C184        C185   1.424       .  A
C185        C186   1.409       .  A
C185        C192   1.521       .  S
C186        C187   1.399       .  A
C186        H191   1.083       .  S
C187        C188   1.416       .  A
C188        C189   1.519       .  S
C189        F193   1.384       .  S
C189        F194   1.383       .  S
C189        F195   1.382       .  S
C192        F196   1.382       .  S
C192        F197   1.382       .  S
C192        F198   1.385       .  S
C199        C200   1.402       .  A
C199        C204   1.407       .  A
C199        H206   1.083       .  S
C200        C201   1.416       .  A
C201        C202   1.403       .  A
C201        C208   1.517       .  S
C202        C203   1.403       .  A
C202        H207   1.085       .  S
C203        C204   1.419       .  A
C204        C889   1.520       .  S
C205        C888   1.520       .  S
C205        F209   1.385   1_565  S
C205        F211   1.383   1_565  S
C205        F894   1.381       .  S
C208        F212   1.384       .  S
C208        F213   1.382       .  S
C208        F214   1.383       .  S
F210        C889   1.381       .  S
C215        C220   1.388   1_455  A
C215       C1584   1.413   1_455  A
C215        H222   1.080       .  S
C216        C217   1.439       .  A
C216       C1583   1.413       .  A
C217        C218   1.426       .  A
C217        C224   1.518       .  S
C218       C1587   1.412       .  A
C218        H223   1.080       .  S
C219        C220   1.416       .  A
C219       C1586   1.412   1_655  A
C220        C221   1.524       .  S
C221        F227   1.384   1_655  S
C221       F1593   1.385       .  S
C221       F1594   1.382       .  S
C224        F228   1.383       .  S
C224       F1597   1.382       .  S
C224       F1598   1.385       .  S
F225       C1589   1.385       .  S
F226       C1589   1.382       .  S
F229       C1592   1.382   1_455  S
F230       C1592   1.385       .  S
C231        C232   1.403       .  A
C231        C236   1.403       .  A
C231        H238   1.083       .  S
C232       C1601   1.410       .  A
C232       C1425   1.475       .  S
C233        C234   1.408       .  A
C233       C1600   1.410       .  A
C233        C240   1.514       .  S
C234       C1603   1.404       .  A
C234        H239   1.083       .  S
C235        C236   1.414       .  A
C235       C1602   1.404       .  A
C236        C237   1.519       .  S
C237        F241   1.385       .  S
C237        F242   1.383       .  S
C237        F243   1.382       .  S
C240        F244   1.383       .  S
C240        F245   1.383       .  S
C240        F246   1.384       .  S
C247        C248   1.401       .  A
C247        C252   1.401       .  A
C247        H254   1.085       .  S
C248       C1617   1.417   1_455  A
C249        C250   1.409       .  A
C249       C1616   1.417       .  A
C249        C256   1.519       .  S
C250        C251   1.404       .  A
C250        H255   1.083       .  S
C251       C1620   1.418       .  A
C252       C1619   1.418       .  A
C252        C253   1.519       .  S
C253        F257   1.384       .  S
C253        F258   1.383       .  S
C253        F259   1.383       .  S
C256        F260   1.382       .  S
C256        F261   1.383       .  S
C256        F262   1.384       .  S
C263        C264   1.403       .  A
C263        C268   1.412       .  A
C263        H270   1.083       .  S
C264       C1633   1.420       .  A
C265        C266   1.398       .  A
C265       C1632   1.420   1_455  A
C265        C272   1.521       .  S
C266        C267   1.399   1_455  A
C266        H271   1.085       .  S
C267       C1636   1.417       .  A
C268       C1635   1.417       .  A
C268        C269   1.517       .  S
C269        F273   1.384       .  S
C269        F274   1.383       .  S
C269        F275   1.382       .  S
C272        F276   1.383       .  S
C272        F277   1.381       .  S
C272        F278   1.384       .  S
C279        C284   1.410       .  A
C279        C622   1.403       .  A
C279        H286   1.083       .  S
C280        C281   1.418       .  A
C280        C621   1.403   1_554  A
C281        C282   1.402       .  A
C281        C288   1.518       .  S
C282        C283   1.403       .  A
C282        H287   1.085       .  S
C283        C626   1.421   1_554  A
C284        C625   1.421       .  A
C284        C285   1.520       .  S
C285        F289   1.385       .  S
C285        F290   1.383       .  S
C285        F633   1.381       .  S
C288        F293   1.382       .  S
C288        F294   1.384       .  S
C288        F634   1.383       .  S
F291        C627   1.381       .  S
F292        C630   1.383       .  S
C295        C300   1.398       .  A
C295        C638   1.402       .  A
C295        H302   1.085       .  S
C296        C297   1.410   1_556  A
C296        C637   1.402       .  A
C297        C298   1.407       .  A
C297        C304   1.515       .  S
C298        C299   1.406   1_554  A
C298        H303   1.083       .  S
C299        C642   1.416       .  A
C300        C641   1.416       .  A
C300        C301   1.519       .  S
C301        F307   1.383       .  S
C301        F647   1.384       .  S
C301        F648   1.383       .  S
C304        F308   1.383       .  S
C304        F651   1.383       .  S
C304        F652   1.384       .  S
F305        C643   1.384       .  S
F306        C643   1.383       .  S
F309        C646   1.383       .  S
F310        C646   1.384       .  S
C311        C316   1.419       .  A
C311        C654   1.420       .  A
C311        H318   1.075       .  S
C312        C313   1.436       .  A
C312        C653   1.420       .  A
C313        C314   1.397       .  A
C313        C320   1.532       .  S
C314        C315   1.402       .  A
C314        H319   1.085       .  S
C315        C658   1.422   1_554  A
C316        C657   1.422       .  A
C316        C317   1.520       .  S
C317        F323   1.383       .  S
C317        F663   1.385       .  S
C317        F664   1.382       .  S
C320        F324   1.384       .  S
C320        F667   1.383   1_554  S
C320        F668   1.385   1_554  S
F321        C659   1.385       .  S
F322        C659   1.382   1_554  S
F325        C662   1.383       .  S
F326        C662   1.385       .  S
C327        C328   1.403   1_554  A
C327        C332   1.407       .  A
C327        H334   1.083       .  S
C328        C671   1.415       .  A
C329        C330   1.409       .  A
C329        C670   1.415       .  A
C329        C336   1.517       .  S
C330        C673   1.403       .  A
C330        H335   1.083       .  S
C331        C332   1.416   1_556  A
C331        C672   1.403       .  A
C332        C333   1.519       .  S
C333        F337   1.385       .  S
C333        F338   1.383       .  S
C333        F339   1.382       .  S
C336        F340   1.382       .  S
C336        F341   1.383       .  S
C336        F342   1.384       .  S
C343        C344   1.410   1_554  A
C343        C348   1.414       .  A
C344        H349   1.083       .  S
C345        C346   1.392       .  A
C345        C670   1.482       .  S
C346        C347   1.409       .  A
C346        H350   1.080       .  S
C347        C657   1.507       .  S
C348        H351   1.077       .  S
C352        C353   1.417       .  A
C352        C357   1.403       .  A
C352        C489   1.478       .  S
C353        C354   1.425       .  A
C353        H358   1.078       .  S
C354        C355   1.403       .  A
C354        C654   1.532       .  S
C355        C356   1.391       .  A
C355        H359   1.063       .  S
C356        C357   1.386       .  A
C356        C638   1.472       .  S
C357        H360   1.083       .  S
C361        C362   1.404       .  A
C361        C366   1.410       .  A
C361        C477   1.474       .  S
C362        C363   1.396       .  A
C362        H367   1.084       .  S
C363        C364   1.400       .  A
C363        C641   1.474       .  S
C364        C365   1.400       .  A
C364        H368   1.084       .  S
C365        C366   1.404       .  A
C365        C622   1.482       .  S
C366        H369   1.083       .  S
C370        C371   1.409       .  A
C370        C375   1.409       .  A
C370        C490   1.482       .  S
C371        C372   1.403       .  A
C371        H376   1.083       .  S
C372        C373   1.400       .  A
C372        C673   1.482       .  S
C373        C374   1.403       .  A
C373        H377   1.085       .  S
C374        C375   1.402       .  A
C374        C625   1.487       .  S
C375        H378   1.081       .  S
C379        C380   1.409   1_455  A
C379        C384   1.407       .  A
C379        C492   1.476       .  S
C380        C381   1.401       .  A
C380        H385   1.083       .  S
C381        C382   1.401       .  A
C381        C609   1.481       .  S
C382        C383   1.400       .  A
C382        H386   1.085       .  S
C383        C384   1.399   1_655  A
C383        C590   1.480   1_655  S
C384        H387   1.083       .  S
C388        C389   1.410       .  A
C388        C393   1.409       .  A
C388        C461   1.479       .  S
C389        C390   1.403       .  A
C389        H394   1.083       .  S
C390        C391   1.399       .  A
C390        C593   1.480       .  S
C391        C392   1.397       .  A
C391        H395   1.085       .  S
C392        C393   1.400       .  A
C392        C577   1.475       .  S
C393        H396   1.083       .  S
C397        C398   1.406       .  A
C397        C402   1.416   1_455  A
C397        C491   1.479   1_455  S
C398        C399   1.391       .  A
C398        H403   1.084       .  S
C399        C400   1.394       .  A
C399       C1942   1.475       .  S
C400        C401   1.407       .  A
C400        H404   1.078       .  S
C401        C402   1.416   1_455  A
C401        C561   1.513   1_455  S
C402        H405   1.080       .  S
C406        C407   1.417       .  A
C406        C411   1.405       .  A
C406        C462   1.481       .  S
C407        C408   1.419       .  A
C407        H412   1.070       .  S
C408        C409   1.416       .  A
C408        C558   1.531       .  S
C409        C410   1.392       .  A
C409        H413   1.080       .  S
C410        C411   1.390       .  A
C410        C606   1.476       .  S
C411        H414   1.083       .  S
C415        C416   1.408       .  A
C415        C420   1.410       .  A
C415        C476   1.479       .  S
C416        C417   1.400       .  A
C416        H421   1.084       .  S
C417        C418   1.400       .  A
C417        C542   1.477       .  S
C418        C419   1.400       .  A
C418        H422   1.084       .  S
C419        C420   1.404       .  A
C419        C529   1.482       .  S
C420        H423   1.084       .  S
C424        C425   1.410       .  A
C424        C429   1.412       .  A
C424        C464   1.478       .  S
C425        C426   1.399       .  A
C425        H430   1.081       .  S
C426        C427   1.398       .  A
C426        C526   1.491       .  S
C427        C428   1.405       .  A
C427        H431   1.080       .  S
C428        C429   1.409       .  A
C428        C510   1.501       .  S
C429        H432   1.082       .  S
C433        C434   1.415       .  A
C433        C438   1.400       .  A
C433        C475   1.478       .  S
C434        C435   1.421       .  A
C434        H439   1.068       .  S
C435        C436   1.417       .  A
C435        C513   1.535       .  S
C436        C437   1.394       .  A
C436        H440   1.077       .  S
C437        C438   1.388       .  A
C437        C497   1.476       .  S
C438        H441   1.082       .  S
C442        C443   1.409       .  A
C442        C447   1.406       .  A
C442        C463   1.476       .  S
C443        C444   1.401       .  A
C443        H448   1.082       .  S
C444        C445   1.399       .  A
C444        C545   1.482       .  S
C445        C446   1.401       .  A
C445        H449   1.084       .  S
C446        C447   1.400       .  A
C446        C494   1.479       .  S
C447        H450   1.084       .  S
O451        V459   1.898       .  S
O451        C461   1.264       .  A
O452       V1143   1.903   1_545  S
O452        C462   1.265       .  A
O453       V1827   1.901       .  S
O453        C463   1.266       .  A
O454        V459   1.907       .  S
O454        C464   1.266       .  A
O455        V460   1.893       .  S
O455        C464   1.263       .  A
O456       V1828   1.891       .  S
O456        C463   1.262       .  A
O457       V1144   1.898   1_545  S
O457        C462   1.266       .  A
O458        V460   1.901       .  S
O458        C461   1.265       .  A
V459       O1136   1.903       .  S
V459       O1821   1.901       .  S
V459        V460   2.086       .  T
V460       O1824   1.891       .  S
V460       O1141   1.898       .  S
O465        V473   1.903       .  S
O465        C475   1.264       .  A
O466        C476   1.265       .  A
O467       V1157   1.895   1_545  S
O467        C477   1.265       .  A
O468        V473   1.905       .  S
O468        C478   1.266       .  A
O469        V474   1.896       .  S
O469        C478   1.264       .  A
O470       V1158   1.896   1_545  S
O470        C477   1.263       .  A
O471        C476   1.265       .  A
O472        V474   1.894       .  S
O472        C475   1.265       .  A
V473       O1151   1.895       .  S
V473        V474   2.087       .  T
V474       O1154   1.896       .  S
O479       V1855   1.890       .  S
O479        C489   1.265       .  A
O480        V487   1.897       .  S
O480        C490   1.265       .  A
O481       V1855   1.903       .  S
O481       C1859   1.264       .  A
O482        C492   1.264       .  A
O483        C492   1.264   1_655  A
O484        V488   1.895       .  S
O484        C491   1.265       .  A
O485        V488   1.904   1_455  S
O485        C490   1.266       .  A
O486       V1856   1.906       .  S
O486        C489   1.265       .  A
V487       O1847   1.890   1_455  S
V487       O1849   1.903       .  S
V487        V488   2.086   1_455  T
V488       O1854   1.906       .  S
C491       O1849   1.264   1_655  A
C493        C494   1.407       .  A
C493        C498   1.410       .  A
C493        H500   1.083       .  S
C494        C495   1.418       .  A
C495        C496   1.397       .  A
C495        C502   1.520       .  S
C496        C497   1.402       .  A
C496        H501   1.085       .  S
C497        C498   1.412       .  A
C498        C499   1.515       .  S
C499        F503   1.384       .  S
C499        F504   1.383       .  S
C499        F505   1.382       .  S
C502        F506   1.383       .  S
C502        F507   1.382       .  S
C502        F508   1.384       .  S
C509        C510   1.407       .  A
C509        C514   1.421       .  A
C509        H516   1.083       .  S
C510        C511   1.413       .  A
C511        C512   1.390       .  A
C511        C518   1.524       .  S
C512        C513   1.419       .  A
C512        H517   1.074       .  S
C513        C514   1.439       .  A
C514        C515   1.517       .  S
C515        F519   1.386       .  S
C515        F520   1.383       .  S
C515        F521   1.383       .  S
C518        F522   1.384       .  S
C518        F523   1.382       .  S
C518        F524   1.384       .  S
C525        C526   1.406       .  A
C525        C530   1.407       .  A
C525        H532   1.083       .  S
C526        C527   1.424       .  A
C527        C528   1.409       .  A
C527        C534   1.521       .  S
C528        C529   1.399       .  A
C528        H533   1.083       .  S
C529        C530   1.416       .  A
C530        C531   1.519       .  S
C531        F535   1.384       .  S
C531        F536   1.383       .  S
C531        F537   1.382       .  S
C534        F538   1.382       .  S
C534        F539   1.382       .  S
C534        F540   1.385       .  S
C541        C542   1.402       .  A
C541        C546   1.407       .  A
C541        H548   1.083       .  S
C542        C543   1.416       .  A
C543        C544   1.403       .  A
C543        C550   1.517       .  S
C544        C545   1.403       .  A
C544        H549   1.085       .  S
C545        C546   1.419       .  A
C546       C1231   1.520       .  S
C547       C1230   1.520       .  S
C547        F551   1.385   1_565  S
C547       F1236   1.381       .  S
C547        F553   1.383   1_565  S
C550        F554   1.384       .  S
C550        F555   1.382       .  S
C550        F556   1.383       .  S
F552       C1231   1.381       .  S
C557       C1926   1.413   1_455  A
C557        C562   1.388   1_455  A
C557        H564   1.080       .  S
C558       C1925   1.413       .  A
C558        C559   1.439       .  A
C559        C560   1.426       .  A
C559        C566   1.518       .  S
C560       C1929   1.412       .  A
C560        H565   1.080       .  S
C561       C1928   1.412   1_655  A
C561        C562   1.416       .  A
C562        C563   1.524       .  S
C563       F1935   1.385       .  S
C563       F1936   1.382       .  S
C563        F569   1.384   1_655  S
C566        F570   1.383       .  S
C566       F1939   1.382       .  S
C566       F1940   1.385       .  S
F567       C1931   1.385       .  S
F568       C1931   1.382       .  S
F571       C1934   1.382   1_455  S
F572       C1934   1.385       .  S
C573        C574   1.403       .  A
C573        C578   1.403       .  A
C573        H580   1.083       .  S
C574       C1943   1.410       .  A
C574       C1767   1.475       .  S
C575       C1942   1.410       .  A
C575        C576   1.408       .  A
C575        C582   1.514       .  S
C576       C1945   1.404       .  A
C576        H581   1.083       .  S
C577       C1944   1.404       .  A
C577        C578   1.414       .  A
C578        C579   1.519       .  S
C579        F583   1.385       .  S
C579        F584   1.383       .  S
C579        F585   1.382       .  S
C582        F586   1.383       .  S
C582        F587   1.383       .  S
C582        F588   1.384       .  S
C589        C590   1.401       .  A
C589        C594   1.401       .  A
C589        H596   1.085       .  S
C590       C1959   1.417   1_455  A
C591       C1958   1.417       .  A
C591        C592   1.409       .  A
C591        C598   1.519       .  S
C592        C593   1.404       .  A
C592        H597   1.083       .  S
C593       C1962   1.418       .  A
C594       C1961   1.418       .  A
C594        C595   1.519       .  S
C595        F599   1.384       .  S
C595        F600   1.383       .  S
C595        F601   1.383       .  S
C598        F602   1.382       .  S
C598        F603   1.383       .  S
C598        F604   1.384       .  S
C605        C606   1.403       .  A
C605        C610   1.412       .  A
C605        H612   1.083       .  S
C606       C1975   1.420       .  A
C607       C1974   1.420   1_455  A
C607        C608   1.398       .  A
C607        C614   1.521       .  S
C608        C609   1.399   1_455  A
C608        H613   1.085       .  S
C609       C1978   1.417       .  A
C610       C1977   1.417       .  A
C610        C611   1.517       .  S
C611        F615   1.384       .  S
C611        F616   1.383       .  S
C611        F617   1.382       .  S
C614        F618   1.383       .  S
C614        F619   1.381       .  S
C614        F620   1.384       .  S
C621        C626   1.410       .  A
C621        H628   1.083       .  S
C622        C623   1.418       .  A
C623        C624   1.402       .  A
C623        C630   1.518       .  S
C624        C625   1.403       .  A
C624        H629   1.085       .  S
C626        C627   1.520       .  S
C627        F631   1.385       .  S
C627        F632   1.383       .  S
C630        F635   1.382       .  S
C630        F636   1.384       .  S
C637        C642   1.398       .  A
C637        H644   1.085       .  S
C638        C639   1.410       .  A
C639        C640   1.407       .  A
C639        C646   1.515       .  S
C640        C641   1.406       .  A
C640        H645   1.083       .  S
C642        C643   1.519       .  S
C643        F649   1.383       .  S
C646        F650   1.383       .  S
C653        C658   1.419   1_554  A
C653        H660   1.075   1_554  S
C654        C655   1.436       .  A
C655        C656   1.397       .  A
C655        C662   1.532       .  S
C656        C657   1.402       .  A
C656        H661   1.085       .  S
C658        C659   1.520       .  S
C659        F665   1.383       .  S
C662        F666   1.384       .  S
C669        C670   1.403       .  A
C669        C674   1.407       .  A
C669        H676   1.083       .  S
C671        C672   1.409       .  A
C671        C678   1.517       .  S
C672        H677   1.083       .  S
C673        C674   1.416       .  A
C674        C675   1.519       .  S
C675        F679   1.385       .  S
C675        F680   1.383       .  S
C675        F681   1.382       .  S
C678        F682   1.382       .  S
C678        F683   1.383       .  S
C678        F684   1.384       .  S
C685        C686   1.410       .  A
C685        C690   1.414       .  A
C685       C1162   1.480       .  S
C686       C1029   1.397       .  A
C686        H691   1.083       .  S
C687       C1028   1.397       .  A
C687        C688   1.392       .  A
C687       C1012   1.482       .  S
C688        C689   1.409   1_556  A
C688        H692   1.080       .  S
C689       C1032   1.409       .  A
C689        C999   1.508       .  S
C690       C1031   1.409       .  A
C690        H693   1.077       .  S
C694        C695   1.417   1_556  A
C694        C699   1.403       .  A
C694        C831   1.478       .  S
C695        C696   1.425       .  A
C695        H700   1.078       .  S
C696        C697   1.403       .  A
C696        C996   1.532       .  S
C697        C698   1.392       .  A
C697        H701   1.063       .  S
C698        C699   1.386   1_554  A
C698        C980   1.472   1_554  S
C699        H702   1.083       .  S
C703        C704   1.404       .  A
C703        C708   1.410   1_556  A
C703        C819   1.474       .  S
C704        C705   1.396       .  A
C704        H709   1.084       .  S
C705        C706   1.400   1_556  A
C705        C983   1.474       .  S
C706        C707   1.400       .  A
C706        H710   1.084       .  S
C707        C708   1.404       .  A
C707        C964   1.482       .  S
C708        H711   1.083       .  S
C712        C713   1.409   1_554  A
C712        C717   1.409       .  A
C712        C832   1.481       .  S
C713        C714   1.403       .  A
C713        H718   1.083       .  S
C714        C715   1.400       .  A
C714       C1015   1.481       .  S
C715        C716   1.403   1_556  A
C715        H719   1.085       .  S
C716        C717   1.402       .  A
C716        C967   1.487       .  S
C717        H720   1.081       .  S
C721        C722   1.409   1_455  A
C721        C726   1.407       .  A
C721        C834   1.476       .  S
C722        C723   1.401       .  A
C722        H727   1.083       .  S
C723        C724   1.401       .  A
C723        C951   1.481       .  S
C724        C725   1.400       .  A
C724        H728   1.085       .  S
C725        C726   1.399   1_655  A
C725        C932   1.480   1_655  S
C726        H729   1.083       .  S
C730        C731   1.410       .  A
C730        C735   1.409       .  A
C730        C803   1.479       .  S
C731        C732   1.403       .  A
C731        H736   1.083       .  S
C732        C733   1.399       .  A
C732        C935   1.480       .  S
C733        C734   1.397       .  A
C733        H737   1.085       .  S
C734        C735   1.400       .  A
C734        C919   1.475       .  S
C735        H738   1.083       .  S
C739        C740   1.406       .  A
C739        C744   1.416   1_455  A
C739        C833   1.479   1_455  S
C740        C741   1.391       .  A
C740        H745   1.084       .  S
C741        C742   1.394       .  A
C741       C2284   1.475       .  S
C742        C743   1.407       .  A
C742        H746   1.078       .  S
C743        C744   1.416   1_455  A
C743        C903   1.513   1_455  S
C744        H747   1.080       .  S
C748        C749   1.417       .  A
C748        C753   1.405       .  A
C748        C804   1.481       .  S
C749        C750   1.419       .  A
C749        H754   1.070       .  S
C750        C751   1.416       .  A
C750        C900   1.531       .  S
C751        C752   1.392       .  A
C751        H755   1.080       .  S
C752        C753   1.390       .  A
C752        C948   1.476       .  S
C753        H756   1.083       .  S
C757        C758   1.408       .  A
C757        C762   1.410       .  A
C757        C818   1.479       .  S
C758        C759   1.400       .  A
C758        H763   1.084       .  S
C759        C760   1.400       .  A
C759        C884   1.477       .  S
C760        C761   1.400       .  A
C760        H764   1.084       .  S
C761        C762   1.404       .  A
C761        C871   1.482       .  S
C762        H765   1.084       .  S
C766        C767   1.410       .  A
C766        C771   1.412       .  A
C766        C806   1.478       .  S
C767        C768   1.399       .  A
C767        H772   1.081       .  S
C768        C769   1.398       .  A
C768        C868   1.491       .  S
C769        C770   1.405       .  A
C769        H773   1.080       .  S
C770        C771   1.409       .  A
C770        C852   1.501       .  S
C771        H774   1.082       .  S
C775        C776   1.415       .  A
C775        C780   1.400       .  A
C775        C817   1.478       .  S
C776        C777   1.421       .  A
C776        H781   1.068       .  S
C777        C778   1.417       .  A
C777        C855   1.535       .  S
C778        C779   1.394       .  A
C778        H782   1.077       .  S
C779        C780   1.388       .  A
C779        C839   1.476       .  S
C780        H783   1.082       .  S
C784        C785   1.409       .  A
C784        C789   1.406       .  A
C784        C805   1.476       .  S
C785        C786   1.401       .  A
C785        H790   1.082       .  S
C786        C787   1.399       .  A
C786        C887   1.482       .  S
C787        C788   1.401       .  A
C787        H791   1.084       .  S
C788        C789   1.400       .  A
C788        C836   1.479       .  S
C789        H792   1.084       .  S
O793        V801   1.898       .  S
O793        C803   1.264       .  A
O794        C804   1.265       .  A
O795       V2169   1.901       .  S
O795        C805   1.266       .  A
O796        V801   1.907       .  S
O796        C806   1.266       .  A
O797        V802   1.893       .  S
O797        C806   1.263       .  A
O798       V2170   1.891       .  S
O798        C805   1.262       .  A
O799        C804   1.266       .  A
O800        V802   1.901       .  S
O800        C803   1.265       .  A
V801       O2163   1.901       .  S
V801        V802   2.086       .  T
V802       O2166   1.891       .  S
O807        V815   1.903       .  S
O807        C817   1.264       .  A
O808       V1157   1.903       .  S
O808        C818   1.265       .  A
O809        C819   1.265   1_554  A
O810        V815   1.905       .  S
O810        C820   1.266       .  A
O811        V816   1.896       .  S
O811        C820   1.264       .  A
O812        C819   1.263       .  A
O813       V1158   1.898       .  S
O813        C818   1.265       .  A
O814        V816   1.894       .  S
O814        C817   1.265       .  A
V815       O1150   1.903   1_554  S
V815        V816   2.087       .  T
V816       O1155   1.898   1_554  S
C820       C1027   1.480       .  S
O821       V2197   1.890   1_556  S
O821        C831   1.265       .  A
O822        V829   1.897       .  S
O822        C832   1.265       .  A
O823       V2197   1.903       .  S
O823       C2201   1.264       .  A
O824       V1171   1.898       .  S
O824        C834   1.264       .  A
O825       V1172   1.895       .  S
O825        C834   1.264   1_655  A
O826        V830   1.895   1_554  S
O826        C833   1.265       .  A
O827        V830   1.904   1_455  S
O827        C832   1.266   1_556  A
O828       V2198   1.906       .  S
O828        C831   1.265       .  A
V829       O2189   1.890   1_454  S
V829       O2191   1.903       .  S
V829       O1166   1.898   1_554  S
V829        V830   2.086   1_454  T
V830       O1167   1.895       .  S
V830       O2196   1.906       .  S
C833       O2191   1.264   1_655  A
C835        C836   1.407       .  A
C835        C840   1.410       .  A
C835        H842   1.083       .  S
C836        C837   1.418       .  A
C837        C838   1.397       .  A
C837        C844   1.520   1_565  S
C838        C839   1.402       .  A
C838        H843   1.085       .  S
C839        C840   1.412       .  A
C840        C841   1.515       .  S
C841        F845   1.384       .  S
C841        F846   1.383       .  S
C841        F847   1.382       .  S
C844        F848   1.383   1_545  S
C844        F849   1.382       .  S
C844        F850   1.384       .  S
C851        C852   1.407       .  A
C851        C856   1.421       .  A
C851        H858   1.083       .  S
C852        C853   1.413       .  A
C853        C854   1.390       .  A
C853        C860   1.524       .  S
C854        C855   1.419       .  A
C854        H859   1.074       .  S
C855        C856   1.439       .  A
C856        C857   1.517       .  S
C857        F861   1.386       .  S
C857        F862   1.383       .  S
C857        F863   1.383       .  S
C860        F864   1.384       .  S
C860        F865   1.382       .  S
C860        F866   1.384       .  S
C867        C868   1.406   1_545  A
C867        C872   1.407       .  A
C867        H874   1.083       .  S
C868        C869   1.424       .  A
C869        C870   1.409       .  A
C869        C876   1.521       .  S
C870        C871   1.399       .  A
C870        H875   1.083       .  S
C871        C872   1.416   1_565  A
C872        C873   1.519       .  S
C873        F877   1.384       .  S
C873        F878   1.383       .  S
C873        F879   1.382       .  S
C876        F880   1.382       .  S
C876        F881   1.382       .  S
C876        F882   1.385       .  S
C883        C884   1.402       .  A
C883        C888   1.407       .  A
C883        H890   1.083       .  S
C884        C885   1.416       .  A
C885        C886   1.403       .  A
C885        C892   1.517       .  S
C886        C887   1.403       .  A
C886        H891   1.085       .  S
C887        C888   1.419       .  A
C889        F893   1.385       .  S
C889        F895   1.383       .  S
C892        F896   1.384       .  S
C892        F897   1.382       .  S
C892        F898   1.383       .  S
C899       C2268   1.413   1_455  A
C899        C904   1.388   1_455  A
C899        H906   1.080       .  S
C900       C2267   1.413       .  A
C900        C901   1.439       .  A
C901        C902   1.426       .  A
C901        C908   1.518       .  S
C902       C2271   1.412       .  A
C902        H907   1.080       .  S
C903       C2270   1.412   1_655  A
C903        C904   1.416       .  A
C904        C905   1.524       .  S
C905       F2277   1.385       .  S
C905       F2278   1.382       .  S
C905        F911   1.384   1_655  S
C908        F912   1.383       .  S
C908       F2281   1.382       .  S
C908       F2282   1.385       .  S
F909       C2273   1.385       .  S
F910       C2273   1.382       .  S
F913       C2276   1.382   1_455  S
F914       C2276   1.385       .  S
C915        C916   1.403       .  A
C915        C920   1.403       .  A
C915        H922   1.083       .  S
C916       C2285   1.410       .  A
C916       C2109   1.475       .  S
C917       C2284   1.410       .  A
C917        C918   1.408       .  A
C917        C924   1.514       .  S
C918       C2287   1.404       .  A
C918        H923   1.083       .  S
C919       C2286   1.404       .  A
C919        C920   1.414       .  A
C920        C921   1.519       .  S
C921        F925   1.385       .  S
C921        F926   1.383       .  S
C921        F927   1.382       .  S
C924        F928   1.383       .  S
C924        F929   1.383       .  S
C924        F930   1.384       .  S
C931        C932   1.401       .  A
C931        C936   1.401       .  A
C931        H938   1.085       .  S
C932       C2301   1.417   1_455  A
C933       C2300   1.417       .  A
C933        C934   1.409       .  A
C933        C940   1.519       .  S
C934        C935   1.404       .  A
C934        H939   1.083       .  S
C935       C2304   1.418       .  A
C936       C2303   1.418       .  A
C936        C937   1.519       .  S
C937        F941   1.384       .  S
C937        F942   1.383       .  S
C937        F943   1.383       .  S
C940        F944   1.382       .  S
C940        F945   1.383       .  S
C940        F946   1.384       .  S
C947        C948   1.403       .  A
C947        C952   1.412       .  A
C947        H954   1.083       .  S
C948       C2317   1.420       .  A
C949       C2316   1.420   1_455  A
C949        C950   1.398       .  A
C949        C956   1.521       .  S
C950        C951   1.399   1_455  A
C950        H955   1.085       .  S
C951       C2320   1.417       .  A
C952       C2319   1.417       .  A
C952        C953   1.517       .  S
C953        F957   1.384       .  S
C953        F958   1.383       .  S
C953        F959   1.382       .  S
C956        F960   1.383       .  S
C956        F961   1.381       .  S
C956        F962   1.384       .  S
C963       C1306   1.403       .  A
C963        C968   1.410       .  A
C963        H970   1.083       .  S
C964       C1305   1.403   1_554  A
C964        C965   1.418       .  A
C965        C966   1.402       .  A
C965        C972   1.518       .  S
C966        C967   1.403       .  A
C966        H971   1.085       .  S
C967       C1310   1.421   1_554  A
C968       C1309   1.421       .  A
C968        C969   1.520       .  S
C969        F973   1.385       .  S
C969        F974   1.383       .  S
C969       F1317   1.381       .  S
C972       F1318   1.383       .  S
C972        F977   1.382       .  S
C972        F978   1.384       .  S
F975       C1311   1.381       .  S
F976       C1314   1.383       .  S
C979       C1322   1.402       .  A
C979        C984   1.398       .  A
C979        H986   1.085       .  S
C980       C1321   1.402       .  A
C980        C981   1.410   1_556  A
C981        C982   1.407       .  A
C981        C988   1.515       .  S
C982        C983   1.406   1_554  A
C982        H987   1.083       .  S
C983       C1326   1.416       .  A
C984       C1325   1.416       .  A
C984        C985   1.519       .  S
C985       F1331   1.384       .  S
C985       F1332   1.383       .  S
C985        F991   1.383       .  S
C988        F992   1.383       .  S
C988       F1335   1.383       .  S
C988       F1336   1.384       .  S
F989       C1327   1.384       .  S
F990       C1327   1.383       .  S
F993       C1330   1.383       .  S
F994       C1330   1.384       .  S
C995       C1338   1.420       .  A
C995       C1000   1.419       .  A
C995       H1002   1.075       .  S
C996       C1337   1.420       .  A
C996        C997   1.436       .  A
C997        C998   1.397       .  A
C997       C1004   1.532       .  S
C998        C999   1.402       .  A
C998       H1003   1.085       .  S
C999       C1342   1.422   1_554  A
C1000      C1341   1.422       .  A
C1000      C1001   1.520       .  S
C1001      F1347   1.385       .  S
C1001      F1348   1.382       .  S
C1001      F1007   1.383       .  S
C1004      F1008   1.384       .  S
C1004      F1351   1.383   1_554  S
C1004      F1352   1.385   1_554  S
F1005      C1343   1.385       .  S
F1006      C1343   1.382   1_554  S
F1009      C1346   1.383       .  S
F1010      C1346   1.385       .  S
C1011      C1012   1.403   1_554  A
C1011      C1016   1.407       .  A
C1011      H1018   1.083       .  S
C1012      C1355   1.415       .  A
C1013      C1354   1.415       .  A
C1013      C1014   1.409       .  A
C1013      C1020   1.517       .  S
C1014      C1357   1.403       .  A
C1014      H1019   1.083       .  S
C1015      C1356   1.403       .  A
C1015      C1016   1.416   1_556  A
C1016      C1017   1.519       .  S
C1017      F1021   1.385       .  S
C1017      F1022   1.383       .  S
C1017      F1023   1.382       .  S
C1020      F1024   1.382       .  S
C1020      F1025   1.383       .  S
C1020      F1026   1.384       .  S
C1027      C1028   1.410   1_554  A
C1027      C1032   1.414       .  A
C1028      H1033   1.083       .  S
C1029      C1030   1.392       .  A
C1029      C1354   1.482       .  S
C1030      C1031   1.409       .  A
C1030      H1034   1.080       .  S
C1031      C1341   1.507       .  S
C1032      H1035   1.077       .  S
C1036      C1037   1.417       .  A
C1036      C1041   1.403       .  A
C1036      C1173   1.478       .  S
C1037      C1038   1.425       .  A
C1037      H1042   1.078       .  S
C1038      C1039   1.403       .  A
C1038      C1338   1.532       .  S
C1039      C1040   1.391       .  A
C1039      H1043   1.063       .  S
C1040      C1041   1.386       .  A
C1040      C1322   1.472       .  S
C1041      H1044   1.083       .  S
C1045      C1046   1.404       .  A
C1045      C1050   1.410       .  A
C1045      C1161   1.474       .  S
C1046      C1047   1.396       .  A
C1046      H1051   1.084       .  S
C1047      C1048   1.400       .  A
C1047      C1325   1.474       .  S
C1048      C1049   1.400       .  A
C1048      H1052   1.084       .  S
C1049      C1050   1.404       .  A
C1049      C1306   1.482       .  S
C1050      H1053   1.083       .  S
C1054      C1055   1.409       .  A
C1054      C1059   1.409       .  A
C1054      C1174   1.482       .  S
C1055      C1056   1.403       .  A
C1055      H1060   1.083       .  S
C1056      C1057   1.400       .  A
C1056      C1357   1.482       .  S
C1057      C1058   1.403       .  A
C1057      H1061   1.085       .  S
C1058      C1059   1.402       .  A
C1058      C1309   1.487       .  S
C1059      H1062   1.081       .  S
C1063      C1064   1.409   1_455  A
C1063      C1068   1.407       .  A
C1063      C1176   1.476       .  S
C1064      C1065   1.401       .  A
C1064      H1069   1.083       .  S
C1065      C1066   1.401       .  A
C1065      C1293   1.481       .  S
C1066      C1067   1.400       .  A
C1066      H1070   1.085       .  S
C1067      C1068   1.399   1_655  A
C1067      C1274   1.480   1_655  S
C1068      H1071   1.083       .  S
C1072      C1073   1.410       .  A
C1072      C1077   1.409       .  A
C1072      C1145   1.479       .  S
C1073      C1074   1.403       .  A
C1073      H1078   1.083       .  S
C1074      C1075   1.399       .  A
C1074      C1277   1.480       .  S
C1075      C1076   1.397       .  A
C1075      H1079   1.085       .  S
C1076      C1077   1.400       .  A
C1076      C1261   1.475       .  S
C1077      H1080   1.083       .  S
C1081      C1082   1.406       .  A
C1081      C1086   1.416   1_455  A
C1081      C1175   1.479   1_455  S
C1082      C1083   1.391       .  A
C1082      H1087   1.084       .  S
C1083      C1084   1.394       .  A
C1083      C2626   1.475       .  S
C1084      C1085   1.407       .  A
C1084      H1088   1.078       .  S
C1085      C1086   1.416   1_455  A
C1085      C1245   1.513   1_455  S
C1086      H1089   1.080       .  S
C1090      C1091   1.417       .  A
C1090      C1095   1.405       .  A
C1090      C1146   1.481       .  S
C1091      C1092   1.419       .  A
C1091      H1096   1.070       .  S
C1092      C1093   1.416       .  A
C1092      C1242   1.531       .  S
C1093      C1094   1.392       .  A
C1093      H1097   1.080       .  S
C1094      C1095   1.390       .  A
C1094      C1290   1.476       .  S
C1095      H1098   1.083       .  S
C1099      C1100   1.408       .  A
C1099      C1104   1.410       .  A
C1099      C1160   1.479       .  S
C1100      C1101   1.400       .  A
C1100      H1105   1.084       .  S
C1101      C1102   1.400       .  A
C1101      C1226   1.477       .  S
C1102      C1103   1.400       .  A
C1102      H1106   1.084       .  S
C1103      C1104   1.404       .  A
C1103      C1213   1.482       .  S
C1104      H1107   1.084       .  S
C1108      C1109   1.410       .  A
C1108      C1113   1.412       .  A
C1108      C1148   1.478       .  S
C1109      C1110   1.399       .  A
C1109      H1114   1.081       .  S
C1110      C1111   1.398       .  A
C1110      C1210   1.491       .  S
C1111      C1112   1.405       .  A
C1111      H1115   1.080       .  S
C1112      C1113   1.409       .  A
C1112      C1194   1.501       .  S
C1113      H1116   1.082       .  S
C1117      C1118   1.415       .  A
C1117      C1122   1.400       .  A
C1117      C1159   1.478       .  S
C1118      C1119   1.421       .  A
C1118      H1123   1.068       .  S
C1119      C1120   1.417       .  A
C1119      C1197   1.535       .  S
C1120      C1121   1.394       .  A
C1120      H1124   1.077       .  S
C1121      C1122   1.388       .  A
C1121      C1181   1.476       .  S
C1122      H1125   1.082       .  S
C1126      C1127   1.409       .  A
C1126      C1131   1.406       .  A
C1126      C1147   1.476       .  S
C1127      C1128   1.401       .  A
C1127      H1132   1.082       .  S
C1128      C1129   1.399       .  A
C1128      C1229   1.482       .  S
C1129      C1130   1.401       .  A
C1129      H1133   1.084       .  S
C1130      C1131   1.400       .  A
C1130      C1178   1.479       .  S
C1131      H1134   1.084       .  S
O1135      V1143   1.898       .  S
O1135      C1145   1.264       .  A
O1136      C1146   1.265       .  A
O1137      V2511   1.901       .  S
O1137      C1147   1.266       .  A
O1138      V1143   1.907       .  S
O1138      C1148   1.266       .  A
O1139      V1144   1.893       .  S
O1139      C1148   1.263       .  A
O1140      V2512   1.891       .  S
O1140      C1147   1.262       .  A
O1141      C1146   1.266       .  A
O1142      V1144   1.901       .  S
O1142      C1145   1.265       .  A
V1143      O2505   1.901       .  S
V1143      V1144   2.086       .  T
V1144      O2508   1.891       .  S
O1149      V1157   1.903       .  S
O1149      C1159   1.264       .  A
O1150      C1160   1.265       .  A
O1151      C1161   1.265       .  A
O1152      V1157   1.905       .  S
O1152      C1162   1.266       .  A
O1153      V1158   1.896       .  S
O1153      C1162   1.264       .  A
O1154      C1161   1.263       .  A
O1155      C1160   1.265       .  A
O1156      V1158   1.894       .  S
O1156      C1159   1.265       .  A
V1157      V1158   2.087       .  T
O1163      V2539   1.890       .  S
O1163      C1173   1.265       .  A
O1164      V1171   1.897       .  S
O1164      C1174   1.265       .  A
O1165      V2539   1.903       .  S
O1165      C2543   1.264       .  A
O1166      C1176   1.264       .  A
O1167      C1176   1.264   1_655  A
O1168      V1172   1.895       .  S
O1168      C1175   1.265       .  A
O1169      V1172   1.904   1_455  S
O1169      C1174   1.266       .  A
O1170      V2540   1.906       .  S
O1170      C1173   1.265       .  A
V1171      O2531   1.890   1_455  S
V1171      O2533   1.903       .  S
V1171      V1172   2.086   1_455  T
V1172      O2538   1.906       .  S
C1175      O2533   1.264   1_655  A
C1177      C1178   1.407       .  A
C1177      C1182   1.410       .  A
C1177      H1184   1.083       .  S
C1178      C1179   1.418       .  A
C1179      C1180   1.397       .  A
C1179      C1186   1.520   1_565  S
C1180      C1181   1.402       .  A
C1180      H1185   1.085       .  S
C1181      C1182   1.412       .  A
C1182      C1183   1.515       .  S
C1183      F1187   1.384       .  S
C1183      F1188   1.383       .  S
C1183      F1189   1.382       .  S
C1186      F1190   1.383   1_545  S
C1186      F1191   1.382       .  S
C1186      F1192   1.384       .  S
C1193      C1194   1.407       .  A
C1193      C1198   1.421       .  A
C1193      H1200   1.083       .  S
C1194      C1195   1.413       .  A
C1195      C1196   1.390       .  A
C1195      C1202   1.524       .  S
C1196      C1197   1.419       .  A
C1196      H1201   1.074       .  S
C1197      C1198   1.439       .  A
C1198      C1199   1.517       .  S
C1199      F1203   1.386       .  S
C1199      F1204   1.383       .  S
C1199      F1205   1.383       .  S
C1202      F1206   1.384       .  S
C1202      F1207   1.382       .  S
C1202      F1208   1.384       .  S
C1209      C1210   1.406   1_545  A
C1209      C1214   1.407       .  A
C1209      H1216   1.083       .  S
C1210      C1211   1.424       .  A
C1211      C1212   1.409       .  A
C1211      C1218   1.521       .  S
C1212      C1213   1.399       .  A
C1212      H1217   1.083       .  S
C1213      C1214   1.416   1_565  A
C1214      C1215   1.519       .  S
C1215      F1219   1.384       .  S
C1215      F1220   1.383       .  S
C1215      F1221   1.382       .  S
C1218      F1222   1.382       .  S
C1218      F1223   1.382       .  S
C1218      F1224   1.385       .  S
C1225      C1226   1.402       .  A
C1225      C1230   1.407       .  A
C1225      H1232   1.083       .  S
C1226      C1227   1.416       .  A
C1227      C1228   1.403       .  A
C1227      C1234   1.517       .  S
C1228      C1229   1.403       .  A
C1228      H1233   1.085       .  S
C1229      C1230   1.419       .  A
C1231      F1235   1.385       .  S
C1231      F1237   1.383       .  S
C1234      F1238   1.384       .  S
C1234      F1239   1.382       .  S
C1234      F1240   1.383       .  S
C1241      C2610   1.413   1_455  A
C1241      C1246   1.388   1_455  A
C1241      H1248   1.080       .  S
C1242      C2609   1.413       .  A
C1242      C1243   1.439       .  A
C1243      C1244   1.426       .  A
C1243      C1250   1.518       .  S
C1244      C2613   1.412       .  A
C1244      H1249   1.080       .  S
C1245      C2612   1.412   1_655  A
C1245      C1246   1.416       .  A
C1246      C1247   1.524       .  S
C1247      F2619   1.385       .  S
C1247      F2620   1.382       .  S
C1247      F1253   1.384   1_655  S
C1250      F1254   1.383       .  S
C1250      F2623   1.382       .  S
C1250      F2624   1.385       .  S
F1251      C2615   1.385       .  S
F1252      C2615   1.382       .  S
F1255      C2618   1.382   1_455  S
F1256      C2618   1.385       .  S
C1257      C1258   1.403       .  A
C1257      C1262   1.403       .  A
C1257      H1264   1.083       .  S
C1258      C2627   1.410       .  A
C1258      C2451   1.475       .  S
C1259      C2626   1.410       .  A
C1259      C1260   1.408       .  A
C1259      C1266   1.514       .  S
C1260      C2629   1.404       .  A
C1260      H1265   1.083       .  S
C1261      C2628   1.404       .  A
C1261      C1262   1.414       .  A
C1262      C1263   1.519       .  S
C1263      F1267   1.385       .  S
C1263      F1268   1.383       .  S
C1263      F1269   1.382       .  S
C1266      F1270   1.383       .  S
C1266      F1271   1.383       .  S
C1266      F1272   1.384       .  S
C1273      C1274   1.401       .  A
C1273      C1278   1.401       .  A
C1273      H1280   1.085       .  S
C1274      C2643   1.417   1_455  A
C1275      C2642   1.417       .  A
C1275      C1276   1.409       .  A
C1275      C1282   1.519       .  S
C1276      C1277   1.404       .  A
C1276      H1281   1.083       .  S
C1277      C2646   1.418       .  A
C1278      C2645   1.418       .  A
C1278      C1279   1.519       .  S
C1279      F1283   1.384       .  S
C1279      F1284   1.383       .  S
C1279      F1285   1.383       .  S
C1282      F1286   1.382       .  S
C1282      F1287   1.383       .  S
C1282      F1288   1.384       .  S
C1289      C1290   1.403       .  A
C1289      C1294   1.412       .  A
C1289      H1296   1.083       .  S
C1290      C2659   1.420       .  A
C1291      C2658   1.420   1_455  A
C1291      C1292   1.398       .  A
C1291      C1298   1.521       .  S
C1292      C1293   1.399   1_455  A
C1292      H1297   1.085       .  S
C1293      C2662   1.417       .  A
C1294      C2661   1.417       .  A
C1294      C1295   1.517       .  S
C1295      F1299   1.384       .  S
C1295      F1300   1.383       .  S
C1295      F1301   1.382       .  S
C1298      F1302   1.383       .  S
C1298      F1303   1.381       .  S
C1298      F1304   1.384       .  S
C1305      C1310   1.410       .  A
C1305      H1312   1.083       .  S
C1306      C1307   1.418       .  A
C1307      C1308   1.402       .  A
C1307      C1314   1.518       .  S
C1308      C1309   1.403       .  A
C1308      H1313   1.085       .  S
C1310      C1311   1.520       .  S
C1311      F1315   1.385       .  S
C1311      F1316   1.383       .  S
C1314      F1319   1.382       .  S
C1314      F1320   1.384       .  S
C1321      C1326   1.398       .  A
C1321      H1328   1.085       .  S
C1322      C1323   1.410       .  A
C1323      C1324   1.407       .  A
C1323      C1330   1.515       .  S
C1324      C1325   1.406       .  A
C1324      H1329   1.083       .  S
C1326      C1327   1.519       .  S
C1327      F1333   1.383       .  S
C1330      F1334   1.383       .  S
C1337      C1342   1.419   1_554  A
C1337      H1344   1.075   1_554  S
C1338      C1339   1.436       .  A
C1339      C1340   1.397       .  A
C1339      C1346   1.532       .  S
C1340      C1341   1.402       .  A
C1340      H1345   1.085       .  S
C1342      C1343   1.520       .  S
C1343      F1349   1.383       .  S
C1346      F1350   1.384       .  S
C1353      C1354   1.403       .  A
C1353      C1358   1.407       .  A
C1353      H1360   1.083       .  S
C1355      C1356   1.409       .  A
C1355      C1362   1.517       .  S
C1356      H1361   1.083       .  S
C1357      C1358   1.416       .  A
C1358      C1359   1.519       .  S
C1359      F1363   1.385       .  S
C1359      F1364   1.383       .  S
C1359      F1365   1.382       .  S
C1362      F1366   1.382       .  S
C1362      F1367   1.383       .  S
C1362      F1368   1.384       .  S
C1369      C1370   1.410       .  A
C1369      C1374   1.414       .  A
C1369      C1846   1.480       .  S
C1370      C1713   1.397       .  A
C1370      H1375   1.083       .  S
C1371      C1712   1.397       .  A
C1371      C1372   1.392       .  A
C1371      C1696   1.482       .  S
C1372      C1373   1.409   1_556  A
C1372      H1376   1.080       .  S
C1373      C1716   1.409       .  A
C1373      C1683   1.508       .  S
C1374      C1715   1.409       .  A
C1374      H1377   1.077       .  S
C1378      C1379   1.417   1_556  A
C1378      C1383   1.403       .  A
C1378      C1515   1.478       .  S
C1379      C1380   1.425       .  A
C1379      H1384   1.078       .  S
C1380      C1381   1.403       .  A
C1380      C1680   1.532       .  S
C1381      C1382   1.392       .  A
C1381      H1385   1.063       .  S
C1382      C1383   1.386   1_554  A
C1382      C1664   1.472   1_554  S
C1383      H1386   1.083       .  S
C1387      C1388   1.404       .  A
C1387      C1392   1.410   1_556  A
C1387      C1503   1.474       .  S
C1388      C1389   1.396       .  A
C1388      H1393   1.084       .  S
C1389      C1390   1.400   1_556  A
C1389      C1667   1.474       .  S
C1390      C1391   1.400       .  A
C1390      H1394   1.084       .  S
C1391      C1392   1.404       .  A
C1391      C1648   1.482       .  S
C1392      H1395   1.083       .  S
C1396      C1397   1.409   1_554  A
C1396      C1401   1.409       .  A
C1396      C1516   1.481       .  S
C1397      C1398   1.403       .  A
C1397      H1402   1.083       .  S
C1398      C1399   1.400       .  A
C1398      C1699   1.481       .  S
C1399      C1400   1.403   1_556  A
C1399      H1403   1.085       .  S
C1400      C1401   1.402       .  A
C1400      C1651   1.487       .  S
C1401      H1404   1.081       .  S
C1405      C1406   1.409       .  A
C1405      C1410   1.407       .  A
C1405      C1518   1.476       .  S
C1406      C1407   1.401       .  A
C1406      H1411   1.083       .  S
C1407      C1408   1.401       .  A
C1407      C1635   1.481       .  S
C1408      C1409   1.400       .  A
C1408      H1412   1.085       .  S
C1409      C1410   1.399       .  A
C1409      C1616   1.480       .  S
C1410      H1413   1.083       .  S
C1414      C1415   1.410   1_655  A
C1414      C1419   1.409       .  A
C1414      C1487   1.479       .  S
C1415      C1416   1.403       .  A
C1415      H1420   1.083       .  S
C1416      C1417   1.399       .  A
C1416      C1619   1.480       .  S
C1417      C1418   1.397       .  A
C1417      H1421   1.085       .  S
C1418      C1419   1.400   1_455  A
C1418      C1603   1.475       .  S
C1419      H1422   1.083       .  S
C1423      C1424   1.406       .  A
C1423      C1428   1.416       .  A
C1423      C1517   1.479       .  S
C1424      C1425   1.391       .  A
C1424      H1429   1.084       .  S
C1425      C1426   1.394       .  A
C1426      C1427   1.407       .  A
C1426      H1430   1.078       .  S
C1427      C1428   1.416       .  A
C1427      C1587   1.513       .  S
C1428      H1431   1.080       .  S
C1432      C1433   1.417       .  A
C1432      C1437   1.405   1_455  A
C1432      C1488   1.481       .  S
C1433      C1434   1.419   1_455  A
C1433      H1438   1.070       .  S
C1434      C1435   1.416       .  A
C1434      C1584   1.531       .  S
C1435      C1436   1.392       .  A
C1435      H1439   1.080       .  S
C1436      C1437   1.390       .  A
C1436      C1632   1.476       .  S
C1437      H1440   1.083   1_655  S
C1441      C1442   1.408       .  A
C1441      C1446   1.410       .  A
C1441      C1502   1.479       .  S
C1442      C1443   1.400       .  A
C1442      H1447   1.084       .  S
C1443      C1444   1.400       .  A
C1443      C1568   1.477       .  S
C1444      C1445   1.400       .  A
C1444      H1448   1.084       .  S
C1445      C1446   1.404       .  A
C1445      C1555   1.482       .  S
C1446      H1449   1.084       .  S
C1450      C1451   1.410       .  A
C1450      C1455   1.412       .  A
C1450      C1490   1.478       .  S
C1451      C1452   1.399       .  A
C1451      H1456   1.081       .  S
C1452      C1453   1.398       .  A
C1452      C1552   1.491       .  S
C1453      C1454   1.405       .  A
C1453      H1457   1.080       .  S
C1454      C1455   1.409       .  A
C1454      C1536   1.501       .  S
C1455      H1458   1.082       .  S
C1459      C1460   1.415       .  A
C1459      C1464   1.400       .  A
C1459      C1501   1.478       .  S
C1460      C1461   1.421       .  A
C1460      H1465   1.068       .  S
C1461      C1462   1.417       .  A
C1461      C1539   1.535       .  S
C1462      C1463   1.394       .  A
C1462      H1466   1.077       .  S
C1463      C1464   1.388       .  A
C1463      C1523   1.476       .  S
C1464      H1467   1.082       .  S
C1468      C1469   1.409       .  A
C1468      C1473   1.406       .  A
C1468      C1489   1.476       .  S
C1469      C1470   1.401       .  A
C1469      H1474   1.082       .  S
C1470      C1471   1.399       .  A
C1470      C1571   1.482       .  S
C1471      C1472   1.401       .  A
C1471      H1475   1.084       .  S
C1472      C1473   1.400       .  A
C1472      C1520   1.479       .  S
C1473      H1476   1.084       .  S
O1477      V1485   1.898   1_655  S
O1477      C1487   1.264       .  A
O1478      V2169   1.903   1_545  S
O1478      C1488   1.265       .  A
O1479      C1489   1.266       .  A
O1480      V1485   1.907   1_655  S
O1480      C1490   1.266       .  A
O1481      V1486   1.893   1_655  S
O1481      C1490   1.263       .  A
O1482      C1489   1.262       .  A
O1483      V2170   1.898   1_545  S
O1483      C1488   1.266       .  A
O1484      V1486   1.901   1_655  S
O1484      C1487   1.265       .  A
V1485      O2162   1.903       .  S
V1485      V1486   2.086       .  T
V1486      O2167   1.898       .  S
O1491      V1499   1.903       .  S
O1491      C1501   1.264       .  A
O1492      V1841   1.903       .  S
O1492      C1502   1.265       .  A
O1493      V2183   1.895   1_545  S
O1493      C1503   1.265   1_554  A
O1494      V1499   1.905       .  S
O1494      C1504   1.266       .  A
O1495      V1500   1.896       .  S
O1495      C1504   1.264       .  A
O1496      V2184   1.896   1_546  S
O1496      C1503   1.263       .  A
O1497      V1842   1.898       .  S
O1497      C1502   1.265       .  A
O1498      V1500   1.894       .  S
O1498      C1501   1.265       .  A
V1499      O1834   1.903   1_554  S
V1499      O2177   1.895       .  S
V1499      V1500   2.087       .  T
V1500      O2180   1.896   1_554  S
V1500      O1839   1.898   1_554  S
C1504      C1711   1.480       .  S
O1505      C1515   1.265       .  A
O1506      V1513   1.897       .  S
O1506      C1516   1.265       .  A
O1508      V1855   1.898       .  S
O1508      C1518   1.264       .  A
O1509      V1856   1.895       .  S
O1509      C1518   1.264       .  A
O1510      V1514   1.895   1_554  S
O1510      C1517   1.265       .  A
O1511      V1514   1.904       .  S
O1511      C1516   1.266   1_556  A
O1512      C1515   1.265       .  A
V1513      O1850   1.898   1_554  S
V1513      V1514   2.086   1_554  T
V1514      O1851   1.895       .  S
C1519      C1520   1.407       .  A
C1519      C1524   1.410       .  A
C1519      H1526   1.083       .  S
C1520      C1521   1.418       .  A
C1521      C1522   1.397       .  A
C1521      C1528   1.520       .  S
C1522      C1523   1.402       .  A
C1522      H1527   1.085       .  S
C1523      C1524   1.412       .  A
C1524      C1525   1.515       .  S
C1525      F1529   1.384       .  S
C1525      F1530   1.383       .  S
C1525      F1531   1.382       .  S
C1528      F1532   1.383       .  S
C1528      F1533   1.382       .  S
C1528      F1534   1.384       .  S
C1535      C1536   1.407       .  A
C1535      C1540   1.421       .  A
C1535      H1542   1.083       .  S
C1536      C1537   1.413       .  A
C1537      C1538   1.390       .  A
C1537      C1544   1.524       .  S
C1538      C1539   1.419       .  A
C1538      H1543   1.074       .  S
C1539      C1540   1.439       .  A
C1540      C1541   1.517       .  S
C1541      F1545   1.386       .  S
C1541      F1546   1.383       .  S
C1541      F1547   1.383       .  S
C1544      F1548   1.384       .  S
C1544      F1549   1.382       .  S
C1544      F1550   1.384       .  S
C1551      C1552   1.406       .  A
C1551      C1556   1.407       .  A
C1551      H1558   1.083       .  S
C1552      C1553   1.424       .  A
C1553      C1554   1.409       .  A
C1553      C1560   1.521       .  S
C1554      C1555   1.399       .  A
C1554      H1559   1.083       .  S
C1555      C1556   1.416       .  A
C1556      C1557   1.519       .  S
C1557      F1561   1.384       .  S
C1557      F1562   1.383       .  S
C1557      F1563   1.382       .  S
C1560      F1564   1.382       .  S
C1560      F1565   1.382       .  S
C1560      F1566   1.385       .  S
C1567      C1568   1.402       .  A
C1567      C1572   1.407       .  A
C1567      H1574   1.083       .  S
C1568      C1569   1.416       .  A
C1569      C1570   1.403       .  A
C1569      C1576   1.517       .  S
C1570      C1571   1.403       .  A
C1570      H1575   1.085       .  S
C1571      C1572   1.419       .  A
C1572      C2257   1.520       .  S
C1573      C2256   1.520       .  S
C1573      F1577   1.385   1_565  S
C1573      F2262   1.381       .  S
C1573      F1579   1.383   1_565  S
C1576      F1580   1.384       .  S
C1576      F1581   1.382       .  S
C1576      F1582   1.383       .  S
F1578      C2257   1.381       .  S
C1583      C1588   1.388       .  A
C1583      H1590   1.080       .  S
C1584      C1585   1.439       .  A
C1585      C1586   1.426   1_655  A
C1585      C1592   1.518       .  S
C1586      H1591   1.080       .  S
C1587      C1588   1.416       .  A
C1588      C1589   1.524       .  S
C1589      F1595   1.384       .  S
C1592      F1596   1.383       .  S
C1599      C1600   1.403   1_655  A
C1599      C1604   1.403       .  A
C1599      H1606   1.083       .  S
C1601      C1602   1.408       .  A
C1601      C1608   1.514       .  S
C1602      H1607   1.083       .  S
C1603      C1604   1.414   1_455  A
C1604      C1605   1.519       .  S
C1605      F1609   1.385       .  S
C1605      F1610   1.383       .  S
C1605      F1611   1.382       .  S
C1608      F1612   1.383       .  S
C1608      F1613   1.383       .  S
C1608      F1614   1.384       .  S
C1615      C1616   1.401       .  A
C1615      C1620   1.401       .  A
C1615      H1622   1.085       .  S
C1617      C1618   1.409       .  A
C1617      C1624   1.519       .  S
C1618      C1619   1.404   1_655  A
C1618      H1623   1.083       .  S
C1620      C1621   1.519       .  S
C1621      F1625   1.384       .  S
C1621      F1626   1.383       .  S
C1621      F1627   1.383       .  S
C1624      F1628   1.382       .  S
C1624      F1629   1.383       .  S
C1624      F1630   1.384       .  S
C1631      C1632   1.403       .  A
C1631      C1636   1.412       .  A
C1631      H1638   1.083       .  S
C1633      C1634   1.398       .  A
C1633      C1640   1.521       .  S
C1634      C1635   1.399       .  A
C1634      H1639   1.085       .  S
C1636      C1637   1.517       .  S
C1637      F1641   1.384       .  S
C1637      F1642   1.383       .  S
C1637      F1643   1.382       .  S
C1640      F1644   1.383       .  S
C1640      F1645   1.381       .  S
C1640      F1646   1.384       .  S
C1647      C1990   1.403       .  A
C1647      C1652   1.410       .  A
C1647      H1654   1.083       .  S
C1648      C1989   1.403   1_554  A
C1648      C1649   1.418       .  A
C1649      C1650   1.402       .  A
C1649      C1656   1.518       .  S
C1650      C1651   1.403       .  A
C1650      H1655   1.085       .  S
C1651      C1994   1.421   1_554  A
C1652      C1993   1.421       .  A
C1652      C1653   1.520       .  S
C1653      F1657   1.385       .  S
C1653      F1658   1.383       .  S
C1653      F2001   1.381       .  S
C1656      F2002   1.383       .  S
C1656      F1661   1.382       .  S
C1656      F1662   1.384       .  S
F1659      C1995   1.381       .  S
F1660      C1998   1.383       .  S
C1663      C2006   1.402       .  A
C1663      C1668   1.398       .  A
C1663      H1670   1.085       .  S
C1664      C2005   1.402       .  A
C1664      C1665   1.410   1_556  A
C1665      C1666   1.407       .  A
C1665      C1672   1.515       .  S
C1666      C1667   1.406   1_554  A
C1666      H1671   1.083       .  S
C1667      C2010   1.416       .  A
C1668      C2009   1.416       .  A
C1668      C1669   1.519       .  S
C1669      F2015   1.384       .  S
C1669      F2016   1.383       .  S
C1669      F1675   1.383       .  S
C1672      F1676   1.383       .  S
C1672      F2019   1.383       .  S
C1672      F2020   1.384       .  S
F1673      C2011   1.384       .  S
F1674      C2011   1.383       .  S
F1677      C2014   1.383       .  S
F1678      C2014   1.384       .  S
C1679      C2022   1.420       .  A
C1679      C1684   1.419       .  A
C1679      H1686   1.075       .  S
C1680      C2021   1.420       .  A
C1680      C1681   1.436       .  A
C1681      C1682   1.397       .  A
C1681      C1688   1.532       .  S
C1682      C1683   1.402       .  A
C1682      H1687   1.085       .  S
C1683      C2026   1.422   1_554  A
C1684      C2025   1.422       .  A
C1684      C1685   1.520       .  S
C1685      F2031   1.385       .  S
C1685      F2032   1.382       .  S
C1685      F1691   1.383       .  S
C1688      F1692   1.384       .  S
C1688      F2035   1.383   1_554  S
C1688      F2036   1.385   1_554  S
F1689      C2027   1.385       .  S
F1690      C2027   1.382   1_554  S
F1693      C2030   1.383       .  S
F1694      C2030   1.385       .  S
C1695      C1696   1.403   1_554  A
C1695      C1700   1.407       .  A
C1695      H1702   1.083       .  S
C1696      C2039   1.415       .  A
C1697      C2038   1.415       .  A
C1697      C1698   1.409       .  A
C1697      C1704   1.517       .  S
C1698      C2041   1.403       .  A
C1698      H1703   1.083       .  S
C1699      C2040   1.403       .  A
C1699      C1700   1.416   1_556  A
C1700      C1701   1.519       .  S
C1701      F1705   1.385       .  S
C1701      F1706   1.383       .  S
C1701      F1707   1.382       .  S
C1704      F1708   1.382       .  S
C1704      F1709   1.383       .  S
C1704      F1710   1.384       .  S
C1711      C1712   1.410   1_554  A
C1711      C1716   1.414       .  A
C1712      H1717   1.083       .  S
C1713      C1714   1.392       .  A
C1713      C2038   1.482       .  S
C1714      C1715   1.409       .  A
C1714      H1718   1.080       .  S
C1715      C2025   1.507       .  S
C1716      H1719   1.077       .  S
C1720      C1721   1.417       .  A
C1720      C1725   1.403       .  A
C1720      C1857   1.478       .  S
C1721      C1722   1.425       .  A
C1721      H1726   1.078       .  S
C1722      C1723   1.403       .  A
C1722      C2022   1.532       .  S
C1723      C1724   1.391       .  A
C1723      H1727   1.063       .  S
C1724      C1725   1.386       .  A
C1724      C2006   1.472       .  S
C1725      H1728   1.083       .  S
C1729      C1730   1.404       .  A
C1729      C1734   1.410       .  A
C1729      C1845   1.474       .  S
C1730      C1731   1.396       .  A
C1730      H1735   1.084       .  S
C1731      C1732   1.400       .  A
C1731      C2009   1.474       .  S
C1732      C1733   1.400       .  A
C1732      H1736   1.084       .  S
C1733      C1734   1.404       .  A
C1733      C1990   1.482       .  S
C1734      H1737   1.083       .  S
C1738      C1739   1.409       .  A
C1738      C1743   1.409       .  A
C1738      C1858   1.482       .  S
C1739      C1740   1.403       .  A
C1739      H1744   1.083       .  S
C1740      C1741   1.400       .  A
C1740      C2041   1.482       .  S
C1741      C1742   1.403       .  A
C1741      H1745   1.085       .  S
C1742      C1743   1.402       .  A
C1742      C1993   1.487       .  S
C1743      H1746   1.081       .  S
C1747      C1748   1.409       .  A
C1747      C1752   1.407       .  A
C1747      C1860   1.476       .  S
C1748      C1749   1.401       .  A
C1748      H1753   1.083       .  S
C1749      C1750   1.401       .  A
C1749      C1977   1.481       .  S
C1750      C1751   1.400       .  A
C1750      H1754   1.085       .  S
C1751      C1752   1.399       .  A
C1751      C1958   1.480       .  S
C1752      H1755   1.083       .  S
C1756      C1757   1.410   1_655  A
C1756      C1761   1.409       .  A
C1756      C1829   1.479       .  S
C1757      C1758   1.403       .  A
C1757      H1762   1.083       .  S
C1758      C1759   1.399       .  A
C1758      C1961   1.480       .  S
C1759      C1760   1.397       .  A
C1759      H1763   1.085       .  S
C1760      C1761   1.400   1_455  A
C1760      C1945   1.475       .  S
C1761      H1764   1.083       .  S
C1765      C1766   1.406       .  A
C1765      C1770   1.416       .  A
C1765      C1859   1.479       .  S
C1766      C1767   1.391       .  A
C1766      H1771   1.084       .  S
C1767      C1768   1.394       .  A
C1768      C1769   1.407       .  A
C1768      H1772   1.078       .  S
C1769      C1770   1.416       .  A
C1769      C1929   1.513       .  S
C1770      H1773   1.080       .  S
C1774      C1775   1.417       .  A
C1774      C1779   1.405   1_455  A
C1774      C1830   1.481       .  S
C1775      C1776   1.419   1_455  A
C1775      H1780   1.070       .  S
C1776      C1777   1.416       .  A
C1776      C1926   1.531       .  S
C1777      C1778   1.392       .  A
C1777      H1781   1.080       .  S
C1778      C1779   1.390       .  A
C1778      C1974   1.476       .  S
C1779      H1782   1.083   1_655  S
C1783      C1784   1.408       .  A
C1783      C1788   1.410       .  A
C1783      C1844   1.479       .  S
C1784      C1785   1.400       .  A
C1784      H1789   1.084       .  S
C1785      C1786   1.400       .  A
C1785      C1910   1.477       .  S
C1786      C1787   1.400       .  A
C1786      H1790   1.084       .  S
C1787      C1788   1.404       .  A
C1787      C1897   1.482       .  S
C1788      H1791   1.084       .  S
C1792      C1793   1.410       .  A
C1792      C1797   1.412       .  A
C1792      C1832   1.478       .  S
C1793      C1794   1.399       .  A
C1793      H1798   1.081       .  S
C1794      C1795   1.398       .  A
C1794      C1894   1.491       .  S
C1795      C1796   1.405       .  A
C1795      H1799   1.080       .  S
C1796      C1797   1.409       .  A
C1796      C1878   1.501       .  S
C1797      H1800   1.082       .  S
C1801      C1802   1.415       .  A
C1801      C1806   1.400       .  A
C1801      C1843   1.478       .  S
C1802      C1803   1.421       .  A
C1802      H1807   1.068       .  S
C1803      C1804   1.417       .  A
C1803      C1881   1.535       .  S
C1804      C1805   1.394       .  A
C1804      H1808   1.077       .  S
C1805      C1806   1.388       .  A
C1805      C1865   1.476       .  S
C1806      H1809   1.082       .  S
C1810      C1811   1.409       .  A
C1810      C1815   1.406       .  A
C1810      C1831   1.476       .  S
C1811      C1812   1.401       .  A
C1811      H1816   1.082       .  S
C1812      C1813   1.399       .  A
C1812      C1913   1.482       .  S
C1813      C1814   1.401       .  A
C1813      H1817   1.084       .  S
C1814      C1815   1.400       .  A
C1814      C1862   1.479       .  S
C1815      H1818   1.084       .  S
O1819      V1827   1.898   1_655  S
O1819      C1829   1.264       .  A
O1820      V2511   1.903   1_545  S
O1820      C1830   1.265       .  A
O1821      C1831   1.266       .  A
O1822      V1827   1.907   1_655  S
O1822      C1832   1.266       .  A
O1823      V1828   1.893   1_655  S
O1823      C1832   1.263       .  A
O1824      C1831   1.262       .  A
O1825      V2512   1.898   1_545  S
O1825      C1830   1.266       .  A
O1826      V1828   1.901   1_655  S
O1826      C1829   1.265       .  A
V1827      O2504   1.903       .  S
V1827      V1828   2.086       .  T
V1828      O2509   1.898       .  S
O1833      V1841   1.903       .  S
O1833      C1843   1.264       .  A
O1834      C1844   1.265       .  A
O1835      V2525   1.895   1_545  S
O1835      C1845   1.265       .  A
O1836      V1841   1.905       .  S
O1836      C1846   1.266       .  A
O1837      V1842   1.896       .  S
O1837      C1846   1.264       .  A
O1838      V2526   1.896   1_545  S
O1838      C1845   1.263       .  A
O1839      C1844   1.265       .  A
O1840      V1842   1.894       .  S
O1840      C1843   1.265       .  A
V1841      O2519   1.895       .  S
V1841      V1842   2.087       .  T
V1842      O2522   1.896       .  S
O1847      C1857   1.265       .  A
O1848      V1855   1.897       .  S
O1848      C1858   1.265       .  A
O1850      C1860   1.264       .  A
O1851      C1860   1.264       .  A
O1852      V1856   1.895       .  S
O1852      C1859   1.265       .  A
O1853      V1856   1.904       .  S
O1853      C1858   1.266       .  A
O1854      C1857   1.265       .  A
V1855      V1856   2.086       .  T
C1861      C1862   1.407       .  A
C1861      C1866   1.410       .  A
C1861      H1868   1.083       .  S
C1862      C1863   1.418       .  A
C1863      C1864   1.397       .  A
C1863      C1870   1.520       .  S
C1864      C1865   1.402       .  A
C1864      H1869   1.085       .  S
C1865      C1866   1.412       .  A
C1866      C1867   1.515       .  S
C1867      F1871   1.384       .  S
C1867      F1872   1.383       .  S
C1867      F1873   1.382       .  S
C1870      F1874   1.383       .  S
C1870      F1875   1.382       .  S
C1870      F1876   1.384       .  S
C1877      C1878   1.407       .  A
C1877      C1882   1.421       .  A
C1877      H1884   1.083       .  S
C1878      C1879   1.413       .  A
C1879      C1880   1.390       .  A
C1879      C1886   1.524       .  S
C1880      C1881   1.419       .  A
C1880      H1885   1.074       .  S
C1881      C1882   1.439       .  A
C1882      C1883   1.517       .  S
C1883      F1887   1.386       .  S
C1883      F1888   1.383       .  S
C1883      F1889   1.383       .  S
C1886      F1890   1.384       .  S
C1886      F1891   1.382       .  S
C1886      F1892   1.384       .  S
C1893      C1894   1.406       .  A
C1893      C1898   1.407       .  A
C1893      H1900   1.083       .  S
C1894      C1895   1.424       .  A
C1895      C1896   1.409       .  A
C1895      C1902   1.521       .  S
C1896      C1897   1.399       .  A
C1896      H1901   1.083       .  S
C1897      C1898   1.416       .  A
C1898      C1899   1.519       .  S
C1899      F1903   1.384       .  S
C1899      F1904   1.383       .  S
C1899      F1905   1.382       .  S
C1902      F1906   1.382       .  S
C1902      F1907   1.382       .  S
C1902      F1908   1.385       .  S
C1909      C1910   1.402       .  A
C1909      C1914   1.407       .  A
C1909      H1916   1.083       .  S
C1910      C1911   1.416       .  A
C1911      C1912   1.403       .  A
C1911      C1918   1.517       .  S
C1912      C1913   1.403       .  A
C1912      H1917   1.085       .  S
C1913      C1914   1.419       .  A
C1914      C2599   1.520       .  S
C1915      C2598   1.520       .  S
C1915      F1919   1.385   1_565  S
C1915      F2604   1.381       .  S
C1915      F1921   1.383   1_565  S
C1918      F1922   1.384       .  S
C1918      F1923   1.382       .  S
C1918      F1924   1.383       .  S
F1920      C2599   1.381       .  S
C1925      C1930   1.388       .  A
C1925      H1932   1.080       .  S
C1926      C1927   1.439       .  A
C1927      C1928   1.426   1_655  A
C1927      C1934   1.518       .  S
C1928      H1933   1.080       .  S
C1929      C1930   1.416       .  A
C1930      C1931   1.524       .  S
C1931      F1937   1.384       .  S
C1934      F1938   1.383       .  S
C1941      C1942   1.403   1_655  A
C1941      C1946   1.403       .  A
C1941      H1948   1.083       .  S
C1943      C1944   1.408       .  A
C1943      C1950   1.514       .  S
C1944      H1949   1.083       .  S
C1945      C1946   1.414   1_455  A
C1946      C1947   1.519       .  S
C1947      F1951   1.385       .  S
C1947      F1952   1.383       .  S
C1947      F1953   1.382       .  S
C1950      F1954   1.383       .  S
C1950      F1955   1.383       .  S
C1950      F1956   1.384       .  S
C1957      C1958   1.401       .  A
C1957      C1962   1.401       .  A
C1957      H1964   1.085       .  S
C1959      C1960   1.409       .  A
C1959      C1966   1.519       .  S
C1960      C1961   1.404   1_655  A
C1960      H1965   1.083       .  S
C1962      C1963   1.519       .  S
C1963      F1967   1.384       .  S
C1963      F1968   1.383       .  S
C1963      F1969   1.383       .  S
C1966      F1970   1.382       .  S
C1966      F1971   1.383       .  S
C1966      F1972   1.384       .  S
C1973      C1974   1.403       .  A
C1973      C1978   1.412       .  A
C1973      H1980   1.083       .  S
C1975      C1976   1.398       .  A
C1975      C1982   1.521       .  S
C1976      C1977   1.399       .  A
C1976      H1981   1.085       .  S
C1978      C1979   1.517       .  S
C1979      F1983   1.384       .  S
C1979      F1984   1.383       .  S
C1979      F1985   1.382       .  S
C1982      F1986   1.383       .  S
C1982      F1987   1.381       .  S
C1982      F1988   1.384       .  S
C1989      C1994   1.410       .  A
C1989      H1996   1.083       .  S
C1990      C1991   1.418       .  A
C1991      C1992   1.402       .  A
C1991      C1998   1.518       .  S
C1992      C1993   1.403       .  A
C1992      H1997   1.085       .  S
C1994      C1995   1.520       .  S
C1995      F1999   1.385       .  S
C1995      F2000   1.383       .  S
C1998      F2003   1.382       .  S
C1998      F2004   1.384       .  S
C2005      C2010   1.398       .  A
C2005      H2012   1.085       .  S
C2006      C2007   1.410       .  A
C2007      C2008   1.407       .  A
C2007      C2014   1.515       .  S
C2008      C2009   1.406       .  A
C2008      H2013   1.083       .  S
C2010      C2011   1.519       .  S
C2011      F2017   1.383       .  S
C2014      F2018   1.383       .  S
C2021      C2026   1.419   1_554  A
C2021      H2028   1.075   1_554  S
C2022      C2023   1.436       .  A
C2023      C2024   1.397       .  A
C2023      C2030   1.532       .  S
C2024      C2025   1.402       .  A
C2024      H2029   1.085       .  S
C2026      C2027   1.520       .  S
C2027      F2033   1.383       .  S
C2030      F2034   1.384       .  S
C2037      C2038   1.403       .  A
C2037      C2042   1.407       .  A
C2037      H2044   1.083       .  S
C2039      C2040   1.409       .  A
C2039      C2046   1.517       .  S
C2040      H2045   1.083       .  S
C2041      C2042   1.416       .  A
C2042      C2043   1.519       .  S
C2043      F2047   1.385       .  S
C2043      F2048   1.383       .  S
C2043      F2049   1.382       .  S
C2046      F2050   1.382       .  S
C2046      F2051   1.383       .  S
C2046      F2052   1.384       .  S
C2053      C2054   1.410       .  A
C2053      C2058   1.414       .  A
C2053      C2530   1.480       .  S
C2054      C2397   1.397       .  A
C2054      H2059   1.083       .  S
C2055      C2396   1.397       .  A
C2055      C2056   1.392       .  A
C2055      C2380   1.482       .  S
C2056      C2057   1.409   1_556  A
C2056      H2060   1.080       .  S
C2057      C2400   1.409       .  A
C2057      C2367   1.508       .  S
C2058      C2399   1.409       .  A
C2058      H2061   1.077       .  S
C2062      C2063   1.417   1_556  A
C2062      C2067   1.403       .  A
C2062      C2199   1.478       .  S
C2063      C2064   1.425       .  A
C2063      H2068   1.078       .  S
C2064      C2065   1.403       .  A
C2064      C2364   1.532       .  S
C2065      C2066   1.392       .  A
C2065      H2069   1.063       .  S
C2066      C2067   1.386   1_554  A
C2066      C2348   1.472   1_554  S
C2067      H2070   1.083       .  S
C2071      C2072   1.404       .  A
C2071      C2076   1.410   1_556  A
C2071      C2187   1.474       .  S
C2072      C2073   1.396       .  A
C2072      H2077   1.084       .  S
C2073      C2074   1.400   1_556  A
C2073      C2351   1.474       .  S
C2074      C2075   1.400       .  A
C2074      H2078   1.084       .  S
C2075      C2076   1.404       .  A
C2075      C2332   1.482       .  S
C2076      H2079   1.083       .  S
C2080      C2081   1.409   1_554  A
C2080      C2085   1.409       .  A
C2080      C2200   1.481       .  S
C2081      C2082   1.403       .  A
C2081      H2086   1.083       .  S
C2082      C2083   1.400       .  A
C2082      C2383   1.481       .  S
C2083      C2084   1.403   1_556  A
C2083      H2087   1.085       .  S
C2084      C2085   1.402       .  A
C2084      C2335   1.487       .  S
C2085      H2088   1.081       .  S
C2089      C2090   1.409       .  A
C2089      C2094   1.407       .  A
C2089      C2202   1.476       .  S
C2090      C2091   1.401       .  A
C2090      H2095   1.083       .  S
C2091      C2092   1.401       .  A
C2091      C2319   1.481       .  S
C2092      C2093   1.400       .  A
C2092      H2096   1.085       .  S
C2093      C2094   1.399       .  A
C2093      C2300   1.480       .  S
C2094      H2097   1.083       .  S
C2098      C2099   1.410   1_655  A
C2098      C2103   1.409       .  A
C2098      C2171   1.479       .  S
C2099      C2100   1.403       .  A
C2099      H2104   1.083       .  S
C2100      C2101   1.399       .  A
C2100      C2303   1.480       .  S
C2101      C2102   1.397       .  A
C2101      H2105   1.085       .  S
C2102      C2103   1.400   1_455  A
C2102      C2287   1.475       .  S
C2103      H2106   1.083       .  S
C2107      C2108   1.406       .  A
C2107      C2112   1.416       .  A
C2107      C2201   1.479       .  S
C2108      C2109   1.391       .  A
C2108      H2113   1.084       .  S
C2109      C2110   1.394       .  A
C2110      C2111   1.407       .  A
C2110      H2114   1.078       .  S
C2111      C2112   1.416       .  A
C2111      C2271   1.513       .  S
C2112      H2115   1.080       .  S
C2116      C2117   1.417       .  A
C2116      C2121   1.405   1_455  A
C2116      C2172   1.481       .  S
C2117      C2118   1.419   1_455  A
C2117      H2122   1.070       .  S
C2118      C2119   1.416       .  A
C2118      C2268   1.531       .  S
C2119      C2120   1.392       .  A
C2119      H2123   1.080       .  S
C2120      C2121   1.390       .  A
C2120      C2316   1.476       .  S
C2121      H2124   1.083   1_655  S
C2125      C2126   1.408       .  A
C2125      C2130   1.410       .  A
C2125      C2186   1.479       .  S
C2126      C2127   1.400       .  A
C2126      H2131   1.084       .  S
C2127      C2128   1.400       .  A
C2127      C2252   1.477       .  S
C2128      C2129   1.400       .  A
C2128      H2132   1.084       .  S
C2129      C2130   1.404       .  A
C2129      C2239   1.482       .  S
C2130      H2133   1.084       .  S
C2134      C2135   1.410       .  A
C2134      C2139   1.412       .  A
C2134      C2174   1.478       .  S
C2135      C2136   1.399       .  A
C2135      H2140   1.081       .  S
C2136      C2137   1.398       .  A
C2136      C2236   1.491       .  S
C2137      C2138   1.405       .  A
C2137      H2141   1.080       .  S
C2138      C2139   1.409       .  A
C2138      C2220   1.501       .  S
C2139      H2142   1.082       .  S
C2143      C2144   1.415       .  A
C2143      C2148   1.400       .  A
C2143      C2185   1.478       .  S
C2144      C2145   1.421       .  A
C2144      H2149   1.068       .  S
C2145      C2146   1.417       .  A
C2145      C2223   1.535       .  S
C2146      C2147   1.394       .  A
C2146      H2150   1.077       .  S
C2147      C2148   1.388       .  A
C2147      C2207   1.476       .  S
C2148      H2151   1.082       .  S
C2152      C2153   1.409       .  A
C2152      C2157   1.406       .  A
C2152      C2173   1.476       .  S
C2153      C2154   1.401       .  A
C2153      H2158   1.082       .  S
C2154      C2155   1.399       .  A
C2154      C2255   1.482       .  S
C2155      C2156   1.401       .  A
C2155      H2159   1.084       .  S
C2156      C2157   1.400       .  A
C2156      C2204   1.479       .  S
C2157      H2160   1.084       .  S
O2161      V2169   1.898   1_655  S
O2161      C2171   1.264       .  A
O2162      C2172   1.265       .  A
O2163      C2173   1.266       .  A
O2164      V2169   1.907   1_655  S
O2164      C2174   1.266       .  A
O2165      V2170   1.893   1_655  S
O2165      C2174   1.263       .  A
O2166      C2173   1.262       .  A
O2167      C2172   1.266       .  A
O2168      V2170   1.901   1_655  S
O2168      C2171   1.265       .  A
V2169      V2170   2.086       .  T
O2175      V2183   1.903       .  S
O2175      C2185   1.264       .  A
O2176      V2525   1.903       .  S
O2176      C2186   1.265       .  A
O2177      C2187   1.265   1_554  A
O2178      V2183   1.905       .  S
O2178      C2188   1.266       .  A
O2179      V2184   1.896       .  S
O2179      C2188   1.264       .  A
O2180      C2187   1.263       .  A
O2181      V2526   1.898       .  S
O2181      C2186   1.265       .  A
O2182      V2184   1.894       .  S
O2182      C2185   1.265       .  A
V2183      O2518   1.903   1_554  S
V2183      V2184   2.087       .  T
V2184      O2523   1.898   1_554  S
C2188      C2395   1.480       .  S
O2189      C2199   1.265       .  A
O2190      V2197   1.897       .  S
O2190      C2200   1.265       .  A
O2192      V2539   1.898       .  S
O2192      C2202   1.264       .  A
O2193      V2540   1.895       .  S
O2193      C2202   1.264       .  A
O2194      V2198   1.895   1_554  S
O2194      C2201   1.265       .  A
O2195      V2198   1.904       .  S
O2195      C2200   1.266   1_556  A
O2196      C2199   1.265       .  A
V2197      O2534   1.898   1_554  S
V2197      V2198   2.086   1_554  T
V2198      O2535   1.895       .  S
C2203      C2204   1.407       .  A
C2203      C2208   1.410       .  A
C2203      H2210   1.083       .  S
C2204      C2205   1.418       .  A
C2205      C2206   1.397       .  A
C2205      C2212   1.520   1_565  S
C2206      C2207   1.402       .  A
C2206      H2211   1.085       .  S
C2207      C2208   1.412       .  A
C2208      C2209   1.515       .  S
C2209      F2213   1.384       .  S
C2209      F2214   1.383       .  S
C2209      F2215   1.382       .  S
C2212      F2216   1.383   1_545  S
C2212      F2217   1.382       .  S
C2212      F2218   1.384       .  S
C2219      C2220   1.407       .  A
C2219      C2224   1.421       .  A
C2219      H2226   1.083       .  S
C2220      C2221   1.413       .  A
C2221      C2222   1.390       .  A
C2221      C2228   1.524       .  S
C2222      C2223   1.419       .  A
C2222      H2227   1.074       .  S
C2223      C2224   1.439       .  A
C2224      C2225   1.517       .  S
C2225      F2229   1.386       .  S
C2225      F2230   1.383       .  S
C2225      F2231   1.383       .  S
C2228      F2232   1.384       .  S
C2228      F2233   1.382       .  S
C2228      F2234   1.384       .  S
C2235      C2236   1.406   1_545  A
C2235      C2240   1.407       .  A
C2235      H2242   1.083       .  S
C2236      C2237   1.424       .  A
C2237      C2238   1.409       .  A
C2237      C2244   1.521       .  S
C2238      C2239   1.399       .  A
C2238      H2243   1.083       .  S
C2239      C2240   1.416   1_565  A
C2240      C2241   1.519       .  S
C2241      F2245   1.384       .  S
C2241      F2246   1.383       .  S
C2241      F2247   1.382       .  S
C2244      F2248   1.382       .  S
C2244      F2249   1.382       .  S
C2244      F2250   1.385       .  S
C2251      C2252   1.402       .  A
C2251      C2256   1.407       .  A
C2251      H2258   1.083       .  S
C2252      C2253   1.416       .  A
C2253      C2254   1.403       .  A
C2253      C2260   1.517       .  S
C2254      C2255   1.403       .  A
C2254      H2259   1.085       .  S
C2255      C2256   1.419       .  A
C2257      F2261   1.385       .  S
C2257      F2263   1.383       .  S
C2260      F2264   1.384       .  S
C2260      F2265   1.382       .  S
C2260      F2266   1.383       .  S
C2267      C2272   1.388       .  A
C2267      H2274   1.080       .  S
C2268      C2269   1.439       .  A
C2269      C2270   1.426   1_655  A
C2269      C2276   1.518       .  S
C2270      H2275   1.080       .  S
C2271      C2272   1.416       .  A
C2272      C2273   1.524       .  S
C2273      F2279   1.384       .  S
C2276      F2280   1.383       .  S
C2283      C2284   1.403   1_655  A
C2283      C2288   1.403       .  A
C2283      H2290   1.083       .  S
C2285      C2286   1.408       .  A
C2285      C2292   1.514       .  S
C2286      H2291   1.083       .  S
C2287      C2288   1.414   1_455  A
C2288      C2289   1.519       .  S
C2289      F2293   1.385       .  S
C2289      F2294   1.383       .  S
C2289      F2295   1.382       .  S
C2292      F2296   1.383       .  S
C2292      F2297   1.383       .  S
C2292      F2298   1.384       .  S
C2299      C2300   1.401       .  A
C2299      C2304   1.401       .  A
C2299      H2306   1.085       .  S
C2301      C2302   1.409       .  A
C2301      C2308   1.519       .  S
C2302      C2303   1.404   1_655  A
C2302      H2307   1.083       .  S
C2304      C2305   1.519       .  S
C2305      F2309   1.384       .  S
C2305      F2310   1.383       .  S
C2305      F2311   1.383       .  S
C2308      F2312   1.382       .  S
C2308      F2313   1.383       .  S
C2308      F2314   1.384       .  S
C2315      C2316   1.403       .  A
C2315      C2320   1.412       .  A
C2315      H2322   1.083       .  S
C2317      C2318   1.398       .  A
C2317      C2324   1.521       .  S
C2318      C2319   1.399       .  A
C2318      H2323   1.085       .  S
C2320      C2321   1.517       .  S
C2321      F2325   1.384       .  S
C2321      F2326   1.383       .  S
C2321      F2327   1.382       .  S
C2324      F2328   1.383       .  S
C2324      F2329   1.381       .  S
C2324      F2330   1.384       .  S
C2331      C2674   1.403       .  A
C2331      C2336   1.410       .  A
C2331      H2338   1.083       .  S
C2332      C2673   1.403   1_554  A
C2332      C2333   1.418       .  A
C2333      C2334   1.402       .  A
C2333      C2340   1.518       .  S
C2334      C2335   1.403       .  A
C2334      H2339   1.085       .  S
C2335      C2678   1.421   1_554  A
C2336      C2677   1.421       .  A
C2336      C2337   1.520       .  S
C2337      F2341   1.385       .  S
C2337      F2342   1.383       .  S
C2337      F2685   1.381       .  S
C2340      F2686   1.383       .  S
C2340      F2345   1.382       .  S
C2340      F2346   1.384       .  S
F2343      C2679   1.381       .  S
F2344      C2682   1.383       .  S
C2347      C2690   1.402       .  A
C2347      C2352   1.398       .  A
C2347      H2354   1.085       .  S
C2348      C2689   1.402       .  A
C2348      C2349   1.410   1_556  A
C2349      C2350   1.407       .  A
C2349      C2356   1.515       .  S
C2350      C2351   1.406   1_554  A
C2350      H2355   1.083       .  S
C2351      C2694   1.416       .  A
C2352      C2693   1.416       .  A
C2352      C2353   1.519       .  S
C2353      F2699   1.384       .  S
C2353      F2700   1.383       .  S
C2353      F2359   1.383       .  S
C2356      F2360   1.383       .  S
C2356      F2703   1.383       .  S
C2356      F2704   1.384       .  S
F2357      C2695   1.384       .  S
F2358      C2695   1.383       .  S
F2361      C2698   1.383       .  S
F2362      C2698   1.384       .  S
C2363      C2706   1.420       .  A
C2363      C2368   1.419       .  A
C2363      H2370   1.075       .  S
C2364      C2705   1.420       .  A
C2364      C2365   1.436       .  A
C2365      C2366   1.397       .  A
C2365      C2372   1.532       .  S
C2366      C2367   1.402       .  A
C2366      H2371   1.085       .  S
C2367      C2710   1.422   1_554  A
C2368      C2709   1.422       .  A
C2368      C2369   1.520       .  S
C2369      F2715   1.385       .  S
C2369      F2716   1.382       .  S
C2369      F2375   1.383       .  S
C2372      F2376   1.384       .  S
C2372      F2719   1.383   1_554  S
C2372      F2720   1.385   1_554  S
F2373      C2711   1.385       .  S
F2374      C2711   1.382   1_554  S
F2377      C2714   1.383       .  S
F2378      C2714   1.385       .  S
C2379      C2380   1.403   1_554  A
C2379      C2384   1.407       .  A
C2379      H2386   1.083       .  S
C2380      C2723   1.415       .  A
C2381      C2722   1.415       .  A
C2381      C2382   1.409       .  A
C2381      C2388   1.517       .  S
C2382      C2725   1.403       .  A
C2382      H2387   1.083       .  S
C2383      C2724   1.403       .  A
C2383      C2384   1.416   1_556  A
C2384      C2385   1.519       .  S
C2385      F2389   1.385       .  S
C2385      F2390   1.383       .  S
C2385      F2391   1.382       .  S
C2388      F2392   1.382       .  S
C2388      F2393   1.383       .  S
C2388      F2394   1.384       .  S
C2395      C2396   1.410   1_554  A
C2395      C2400   1.414       .  A
C2396      H2401   1.083       .  S
C2397      C2398   1.392       .  A
C2397      C2722   1.482       .  S
C2398      C2399   1.409       .  A
C2398      H2402   1.080       .  S
C2399      C2709   1.507       .  S
C2400      H2403   1.077       .  S
C2404      C2405   1.417       .  A
C2404      C2409   1.403       .  A
C2404      C2541   1.478       .  S
C2405      C2406   1.425       .  A
C2405      H2410   1.078       .  S
C2406      C2407   1.403       .  A
C2406      C2706   1.532       .  S
C2407      C2408   1.391       .  A
C2407      H2411   1.063       .  S
C2408      C2409   1.386       .  A
C2408      C2690   1.472       .  S
C2409      H2412   1.083       .  S
C2413      C2414   1.404       .  A
C2413      C2418   1.410       .  A
C2413      C2529   1.474       .  S
C2414      C2415   1.396       .  A
C2414      H2419   1.084       .  S
C2415      C2416   1.400       .  A
C2415      C2693   1.474       .  S
C2416      C2417   1.400       .  A
C2416      H2420   1.084       .  S
C2417      C2418   1.404       .  A
C2417      C2674   1.482       .  S
C2418      H2421   1.083       .  S
C2422      C2423   1.409       .  A
C2422      C2427   1.409       .  A
C2422      C2542   1.482       .  S
C2423      C2424   1.403       .  A
C2423      H2428   1.083       .  S
C2424      C2425   1.400       .  A
C2424      C2725   1.482       .  S
C2425      C2426   1.403       .  A
C2425      H2429   1.085       .  S
C2426      C2427   1.402       .  A
C2426      C2677   1.487       .  S
C2427      H2430   1.081       .  S
C2431      C2432   1.409       .  A
C2431      C2436   1.407       .  A
C2431      C2544   1.476       .  S
C2432      C2433   1.401       .  A
C2432      H2437   1.083       .  S
C2433      C2434   1.401       .  A
C2433      C2661   1.481       .  S
C2434      C2435   1.400       .  A
C2434      H2438   1.085       .  S
C2435      C2436   1.399       .  A
C2435      C2642   1.480       .  S
C2436      H2439   1.083       .  S
C2440      C2441   1.410   1_655  A
C2440      C2445   1.409       .  A
C2440      C2513   1.479       .  S
C2441      C2442   1.403       .  A
C2441      H2446   1.083       .  S
C2442      C2443   1.399       .  A
C2442      C2645   1.480       .  S
C2443      C2444   1.397       .  A
C2443      H2447   1.085       .  S
C2444      C2445   1.400   1_455  A
C2444      C2629   1.475       .  S
C2445      H2448   1.083       .  S
C2449      C2450   1.406       .  A
C2449      C2454   1.416       .  A
C2449      C2543   1.479       .  S
C2450      C2451   1.391       .  A
C2450      H2455   1.084       .  S
C2451      C2452   1.394       .  A
C2452      C2453   1.407       .  A
C2452      H2456   1.078       .  S
C2453      C2454   1.416       .  A
C2453      C2613   1.513       .  S
C2454      H2457   1.080       .  S
C2458      C2459   1.417       .  A
C2458      C2463   1.405   1_455  A
C2458      C2514   1.481       .  S
C2459      C2460   1.419   1_455  A
C2459      H2464   1.070       .  S
C2460      C2461   1.416       .  A
C2460      C2610   1.531       .  S
C2461      C2462   1.392       .  A
C2461      H2465   1.080       .  S
C2462      C2463   1.390       .  A
C2462      C2658   1.476       .  S
C2463      H2466   1.083   1_655  S
C2467      C2468   1.408       .  A
C2467      C2472   1.410       .  A
C2467      C2528   1.479       .  S
C2468      C2469   1.400       .  A
C2468      H2473   1.084       .  S
C2469      C2470   1.400       .  A
C2469      C2594   1.477       .  S
C2470      C2471   1.400       .  A
C2470      H2474   1.084       .  S
C2471      C2472   1.404       .  A
C2471      C2581   1.482       .  S
C2472      H2475   1.084       .  S
C2476      C2477   1.410       .  A
C2476      C2481   1.412       .  A
C2476      C2516   1.478       .  S
C2477      C2478   1.399       .  A
C2477      H2482   1.081       .  S
C2478      C2479   1.398       .  A
C2478      C2578   1.491       .  S
C2479      C2480   1.405       .  A
C2479      H2483   1.080       .  S
C2480      C2481   1.409       .  A
C2480      C2562   1.501       .  S
C2481      H2484   1.082       .  S
C2485      C2486   1.415       .  A
C2485      C2490   1.400       .  A
C2485      C2527   1.478       .  S
C2486      C2487   1.421       .  A
C2486      H2491   1.068       .  S
C2487      C2488   1.417       .  A
C2487      C2565   1.535       .  S
C2488      C2489   1.394       .  A
C2488      H2492   1.077       .  S
C2489      C2490   1.388       .  A
C2489      C2549   1.476       .  S
C2490      H2493   1.082       .  S
C2494      C2495   1.409       .  A
C2494      C2499   1.406       .  A
C2494      C2515   1.476       .  S
C2495      C2496   1.401       .  A
C2495      H2500   1.082       .  S
C2496      C2497   1.399       .  A
C2496      C2597   1.482       .  S
C2497      C2498   1.401       .  A
C2497      H2501   1.084       .  S
C2498      C2499   1.400       .  A
C2498      C2546   1.479       .  S
C2499      H2502   1.084       .  S
O2503      V2511   1.898   1_655  S
O2503      C2513   1.264       .  A
O2504      C2514   1.265       .  A
O2505      C2515   1.266       .  A
O2506      V2511   1.907   1_655  S
O2506      C2516   1.266       .  A
O2507      V2512   1.893   1_655  S
O2507      C2516   1.263       .  A
O2508      C2515   1.262       .  A
O2509      C2514   1.266       .  A
O2510      V2512   1.901   1_655  S
O2510      C2513   1.265       .  A
V2511      V2512   2.086       .  T
O2517      V2525   1.903       .  S
O2517      C2527   1.264       .  A
O2518      C2528   1.265       .  A
O2519      C2529   1.265       .  A
O2520      V2525   1.905       .  S
O2520      C2530   1.266       .  A
O2521      V2526   1.896       .  S
O2521      C2530   1.264       .  A
O2522      C2529   1.263       .  A
O2523      C2528   1.265       .  A
O2524      V2526   1.894       .  S
O2524      C2527   1.265       .  A
V2525      V2526   2.087       .  T
O2531      C2541   1.265       .  A
O2532      V2539   1.897       .  S
O2532      C2542   1.265       .  A
O2534      C2544   1.264       .  A
O2535      C2544   1.264       .  A
O2536      V2540   1.895       .  S
O2536      C2543   1.265       .  A
O2537      V2540   1.904       .  S
O2537      C2542   1.266       .  A
O2538      C2541   1.265       .  A
V2539      V2540   2.086       .  T
C2545      C2546   1.407       .  A
C2545      C2550   1.410       .  A
C2545      H2552   1.083       .  S
C2546      C2547   1.418       .  A
C2547      C2548   1.397       .  A
C2547      C2554   1.520   1_565  S
C2548      C2549   1.402       .  A
C2548      H2553   1.085       .  S
C2549      C2550   1.412       .  A
C2550      C2551   1.515       .  S
C2551      F2555   1.384       .  S
C2551      F2556   1.383       .  S
C2551      F2557   1.382       .  S
C2554      F2558   1.383   1_545  S
C2554      F2559   1.382       .  S
C2554      F2560   1.384       .  S
C2561      C2562   1.407       .  A
C2561      C2566   1.421       .  A
C2561      H2568   1.083       .  S
C2562      C2563   1.413       .  A
C2563      C2564   1.390       .  A
C2563      C2570   1.524       .  S
C2564      C2565   1.419       .  A
C2564      H2569   1.074       .  S
C2565      C2566   1.439       .  A
C2566      C2567   1.517       .  S
C2567      F2571   1.386       .  S
C2567      F2572   1.383       .  S
C2567      F2573   1.383       .  S
C2570      F2574   1.384       .  S
C2570      F2575   1.382       .  S
C2570      F2576   1.384       .  S
C2577      C2578   1.406   1_545  A
C2577      C2582   1.407       .  A
C2577      H2584   1.083       .  S
C2578      C2579   1.424       .  A
C2579      C2580   1.409       .  A
C2579      C2586   1.521       .  S
C2580      C2581   1.399       .  A
C2580      H2585   1.083       .  S
C2581      C2582   1.416   1_565  A
C2582      C2583   1.519       .  S
C2583      F2587   1.384       .  S
C2583      F2588   1.383       .  S
C2583      F2589   1.382       .  S
C2586      F2590   1.382       .  S
C2586      F2591   1.382       .  S
C2586      F2592   1.385       .  S
C2593      C2594   1.402       .  A
C2593      C2598   1.407       .  A
C2593      H2600   1.083       .  S
C2594      C2595   1.416       .  A
C2595      C2596   1.403       .  A
C2595      C2602   1.517       .  S
C2596      C2597   1.403       .  A
C2596      H2601   1.085       .  S
C2597      C2598   1.419       .  A
C2599      F2603   1.385       .  S
C2599      F2605   1.383       .  S
C2602      F2606   1.384       .  S
C2602      F2607   1.382       .  S
C2602      F2608   1.383       .  S
C2609      C2614   1.388       .  A
C2609      H2616   1.080       .  S
C2610      C2611   1.439       .  A
C2611      C2612   1.426   1_655  A
C2611      C2618   1.518       .  S
C2612      H2617   1.080       .  S
C2613      C2614   1.416       .  A
C2614      C2615   1.524       .  S
C2615      F2621   1.384       .  S
C2618      F2622   1.383       .  S
C2625      C2626   1.403   1_655  A
C2625      C2630   1.403       .  A
C2625      H2632   1.083       .  S
C2627      C2628   1.408       .  A
C2627      C2634   1.514       .  S
C2628      H2633   1.083       .  S
C2629      C2630   1.414   1_455  A
C2630      C2631   1.519       .  S
C2631      F2635   1.385       .  S
C2631      F2636   1.383       .  S
C2631      F2637   1.382       .  S
C2634      F2638   1.383       .  S
C2634      F2639   1.383       .  S
C2634      F2640   1.384       .  S
C2641      C2642   1.401       .  A
C2641      C2646   1.401       .  A
C2641      H2648   1.085       .  S
C2643      C2644   1.409       .  A
C2643      C2650   1.519       .  S
C2644      C2645   1.404   1_655  A
C2644      H2649   1.083       .  S
C2646      C2647   1.519       .  S
C2647      F2651   1.384       .  S
C2647      F2652   1.383       .  S
C2647      F2653   1.383       .  S
C2650      F2654   1.382       .  S
C2650      F2655   1.383       .  S
C2650      F2656   1.384       .  S
C2657      C2658   1.403       .  A
C2657      C2662   1.412       .  A
C2657      H2664   1.083       .  S
C2659      C2660   1.398       .  A
C2659      C2666   1.521       .  S
C2660      C2661   1.399       .  A
C2660      H2665   1.085       .  S
C2662      C2663   1.517       .  S
C2663      F2667   1.384       .  S
C2663      F2668   1.383       .  S
C2663      F2669   1.382       .  S
C2666      F2670   1.383       .  S
C2666      F2671   1.381       .  S
C2666      F2672   1.384       .  S
C2673      C2678   1.410       .  A
C2673      H2680   1.083       .  S
C2674      C2675   1.418       .  A
C2675      C2676   1.402       .  A
C2675      C2682   1.518       .  S
C2676      C2677   1.403       .  A
C2676      H2681   1.085       .  S
C2678      C2679   1.520       .  S
C2679      F2683   1.385       .  S
C2679      F2684   1.383       .  S
C2682      F2687   1.382       .  S
C2682      F2688   1.384       .  S
C2689      C2694   1.398       .  A
C2689      H2696   1.085       .  S
C2690      C2691   1.410       .  A
C2691      C2692   1.407       .  A
C2691      C2698   1.515       .  S
C2692      C2693   1.406       .  A
C2692      H2697   1.083       .  S
C2694      C2695   1.519       .  S
C2695      F2701   1.383       .  S
C2698      F2702   1.383       .  S
C2705      C2710   1.419   1_554  A
C2705      H2712   1.075   1_554  S
C2706      C2707   1.436       .  A
C2707      C2708   1.397       .  A
C2707      C2714   1.532       .  S
C2708      C2709   1.402       .  A
C2708      H2713   1.085       .  S
C2710      C2711   1.520       .  S
C2711      F2717   1.383       .  S
C2714      F2718   1.384       .  S
C2721      C2722   1.403       .  A
C2721      C2726   1.407       .  A
C2721      H2728   1.083       .  S
C2723      C2724   1.409       .  A
C2723      C2730   1.517       .  S
C2724      H2729   1.083       .  S
C2725      C2726   1.416       .  A
C2726      C2727   1.519       .  S
C2727      F2731   1.385       .  S
C2727      F2732   1.383       .  S
C2727      F2733   1.382       .  S
C2730      F2734   1.382       .  S
C2730      F2735   1.383       .  S
C2730      F2736   1.384       .  S
