geometry optimzed in LAMMPS
_audit_creation_date              2020-11-30 
_audit_creation_method            'lammps2cif' 
_symmetry_space_group_name_H-M    'P1' 
_symmetry_Int_Tables_number       1 
_symmetry_cell_setting            triclinic 
loop_ 
_symmetry_equiv_pos_as_xyz 
  x,y,z 
_cell_length_a                    29.75582904 
_cell_length_b                    29.8112487044471 
_cell_length_c                    109.33058693563723 
_cell_angle_alpha                 90.34228848247436 
_cell_angle_beta                  89.40889932422053 
_cell_angle_gamma                 89.68143231156496 
loop_ 
_atom_site_label 
_atom_site_type_symbol 
_atom_site_fract_x 
_atom_site_fract_y 
_atom_site_fract_z 
_atom_site_charge 
C1          C  0.98746719  0.26771794  0.89123775     0.80300
N2          N  0.98907779  0.22892262  0.89771640    -0.78000
C3          C  0.98971647  0.18864765  0.89177881     0.82800
N4          N  0.49460289  0.18244020  0.87958798    -0.77900
C5          C  0.49580188  0.22076004  0.87298471     0.82900
N6          N  0.49493873  0.26093846  0.87897154    -0.79600
C7          C  0.49058150  0.21269741  0.81982013     0.80300
N8          N  0.49050995  0.17079669  0.81468291    -0.78000
C9          C  0.48801031  0.16580877  0.80234172     0.82800
N10         N  0.48599602  0.20243846  0.79514530    -0.77900
C11         C  0.48609165  0.24404015  0.80009678     0.82900
N12         N  0.48923838  0.24914831  0.81240206    -0.79600
C13         C  0.99893627  0.20220286  0.04630440     0.80300
N14         N  0.00178974  0.20237902  0.03391771    -0.78000
C15         C  0.00297640  0.24159605  0.02765213     0.82800
N16         N  0.00046672  0.28083575  0.03396982    -0.77900
C17         C  0.99787884  0.28110157  0.04637148     0.82900
N18         N  0.99675207  0.24168143  0.05255074    -0.79600
C19         C  0.01399441  0.26693395  0.95570551     0.80300
N20         N  0.01493806  0.22688239  0.94969878    -0.78000
C21         C  0.01611498  0.18799045  0.95609372     0.82800
N22         N  0.01512283  0.18924229  0.96849584    -0.77900
C23         C  0.01288654  0.22895931  0.97460693     0.82900
N24         N  0.01244784  0.26768984  0.96812355    -0.79600
C25         C  0.98157468  0.28091160  0.10911894     0.80300
N26         N  0.98144712  0.24013536  0.10352792    -0.78000
C27         C  0.98090777  0.20217303  0.11034923     0.82800
N28         N  0.98063503  0.20511096  0.12276912    -0.77900
C29         C  0.98054301  0.24589067  0.12844025     0.82900
N30         N  0.98181103  0.28342295  0.12151034    -0.79600
C31         C  0.98400058  0.25347959  0.18171264     0.80300
N32         N  0.98475283  0.21591439  0.18871645    -0.78000
C33         C  0.98292716  0.21905390  0.20109960     0.82800
N34         N  0.98089592  0.25978640  0.20650151    -0.77900
C35         C  0.97996211  0.29751657  0.19974157     0.82900
N36         N  0.98140631  0.29446805  0.18732831    -0.79600
C37         C  0.98723789  0.03240500  0.08473640     0.02400
C38         C  0.98752968  0.03324675  0.07178039     0.02400
C39         C  0.98956460  0.99274592  0.06522484    -0.18100
C40         C  0.99400013  0.45223419  0.07134471     0.02400
C41         C  0.99144797  0.45139485  0.08429640     0.02400
C42         C  0.98742010  0.99096523  0.09081550    -0.18100
H43         H  0.98700172  0.99028135  0.10072337     0.04400
H44         H  0.99171913  0.99346630  0.05533052     0.04400
C45         C  0.00199759  0.01868649  0.93056864     0.02400
C46         C  0.99509065  0.01924041  0.91775711     0.02400
C47         C  0.99549363  0.97825058  0.91127733    -0.18100
C48         C  0.99411328  0.43702554  0.91732113     0.02400
C49         C  0.00052292  0.43628808  0.93014326     0.02400
C50         C  0.00880232  0.97772908  0.93652580    -0.18100
H51         H  0.01646918  0.97794901  0.94618620     0.04400
H52         H  0.99193058  0.97839058  0.90142448     0.04400
In53       In  0.49981835  0.95560649  0.75096635     1.36900
C54         C  0.98865479  0.40637782  0.76565437     0.77700
O55         O  0.45232426  0.98961751  0.73821209    -0.60700
O56         O  0.44384784  0.42744179  0.73597092    -0.51600
C57         C  0.49771569  0.01835369  0.76853252     0.70400
O58         O  0.03477989  0.01660330  0.76407883    -0.46500
C59         C  0.05430554  0.47828322  0.73361534     0.75100
O60         O  0.45976410  0.39971753  0.75956494    -0.58400
O61         O  0.03578424  0.51297419  0.73809568    -0.48500
O62         O  0.02378306  0.42129298  0.76066686    -0.54800
C63         C  0.42615841  0.46469947  0.73343201     0.85300
O64         O  0.46260280  0.00490133  0.76330854    -0.56700
O65         O  0.05089051  0.93674046  0.73949830    -0.60000
In66       In  0.02120200  0.00489117  0.24935426     1.36900
C67         C  0.01052942  0.07236958  0.23409217     0.77700
O68         O  0.44998190  0.46485041  0.26352071    -0.60700
O69         O  0.47445451  0.04139942  0.26089559    -0.51600
C70         C  0.99001341  0.44430517  0.23344410     0.70400
O71         O  0.02818496  0.45125874  0.23797781    -0.46500
C72         C  0.08777290  0.00411366  0.26518725     0.75100
O73         O  0.97834069  0.04822822  0.23763907    -0.58400
O74         O  0.06715077  0.96916419  0.26204890    -0.48500
O75         O  0.04788767  0.06294030  0.23878230    -0.54800
C76         C  0.45737852  0.01014491  0.26706173     0.85300
O77         O  0.95889572  0.46857866  0.23780185    -0.56700
O78         O  0.04722320  0.53656616  0.26482509    -0.60000
C79         C  0.22146498  0.01877288  0.39094673     0.80300
N80         N  0.26054834  0.01791592  0.39723418    -0.78000
C81         C  0.30062478  0.01928392  0.39120072     0.82800
N82         N  0.30128394  0.02082081  0.37878521    -0.77900
C83         C  0.26250734  0.02244815  0.37235682     0.82900
N84         N  0.22250535  0.02097293  0.37852054    -0.79600
C85         C  0.26588395  0.01672258  0.31911803     0.80300
N86         N  0.22805540  0.01589761  0.31223587    -0.78000
C87         C  0.23118820  0.01553474  0.29985097     0.82800
N88         N  0.27186730  0.01621665  0.29431720    -0.77900
C89         C  0.30977834  0.01741492  0.30098825     0.82900
N90         N  0.30687883  0.01788236  0.31340562    -0.79600
C91         C  0.21571788  0.56635888  0.45590087     0.80300
N92         N  0.25624264  0.56676972  0.45004257    -0.78000
C93         C  0.29485637  0.56520858  0.45655150     0.82800
N94         N  0.29287606  0.56301729  0.46893582    -0.77900
C95         C  0.25256152  0.56252931  0.47489047     0.82900
N96         N  0.21404835  0.56465275  0.46832864    -0.79600
C97         C  0.21159074  0.56337932  0.54640138     0.80300
N98         N  0.25045731  0.56446854  0.55278567    -0.78000
C99         C  0.29059917  0.56431259  0.54678130     0.82800
N100        N  0.29172933  0.56277480  0.53438581    -0.77900
C101        C  0.25312685  0.56256704  0.52790169     0.82900
N102        N  0.21297563  0.56281672  0.53396779    -0.79600
C103        C  0.24261424  0.50693475  0.68119967     0.80300
N104        N  0.20293840  0.50368912  0.68746768    -0.78000
C105        C  0.20271196  0.49457759  0.69962994     0.82800
N106        N  0.24202041  0.48893151  0.70550470    -0.77900
C107        C  0.28165267  0.49318001  0.69950553     0.82900
N108        N  0.28213526  0.50216851  0.68731376    -0.79600
C109        C  0.28895776  0.55835872  0.61078932     0.80300
N110        N  0.24955476  0.56129349  0.60470551    -0.78000
C111        C  0.20980249  0.55746075  0.61080714     0.82800
N112        N  0.20965822  0.54965098  0.62304599    -0.77900
C113        C  0.24898051  0.54709121  0.62926365     0.82900
N114        N  0.28856637  0.55137159  0.62306093    -0.79600
C115        C  0.04205762  0.57905436  0.57234857     0.02400
C116        C  0.04117185  0.57514582  0.58526216     0.02400
C117        C  0.99975277  0.57672147  0.59152442    -0.18100
C118        C  0.45918523  0.56962056  0.58495143     0.02400
C119        C  0.45992549  0.57020595  0.57199626     0.02400
C120        C  0.00147456  0.58192108  0.56601907    -0.18100
H121        H  0.00205428  0.58364229  0.55613082     0.04400
H122        H  0.99908138  0.57468263  0.60140473     0.04400
C123        C  0.04646330  0.57280888  0.41674703     0.02400
C124        C  0.04691713  0.57140444  0.42972014     0.02400
C125        C  0.00594879  0.56744022  0.43612742    -0.18100
C126        C  0.46492349  0.56242728  0.43051566     0.02400
C127        C  0.46453164  0.56558424  0.41757824     0.02400
C128        C  0.00526262  0.56968183  0.41058820    -0.18100
H129        H  0.00518789  0.57076195  0.40068795     0.04400
H130        H  0.00599576  0.56496897  0.44600158     0.04400
C131        C  0.35759257  0.60028372  0.60502439    -0.05700
C132        C  0.33206180  0.56104980  0.60403356     0.00300
C133        C  0.34849372  0.52455191  0.59695700    -0.08300
C134        C  0.39061706  0.52833897  0.59112967    -0.05700
C135        C  0.41618486  0.56761230  0.59200839     0.00300
C136        C  0.39960272  0.60440072  0.59905267    -0.08200
C137        C  0.43229903  0.08840753  0.60299817     0.62200
H138        H  0.34437827  0.62761204  0.61058509     0.12900
H139        H  0.40378118  0.50074776  0.58568350     0.12900
C140        C  0.32140734  0.48188055  0.59556820     0.62400
F141        F  0.46372541  0.63997815  0.60736632    -0.22800
F142        F  0.40085735  0.68110471  0.60599820    -0.20100
F143        F  0.44468053  0.10860892  0.59213616    -0.19800
F144        F  0.28274557  0.49097811  0.58910348    -0.19800
F145        F  0.30849607  0.90850733  0.60233128    -0.20100
F146        F  0.34531804  0.44877507  0.58935267    -0.22800
C147        C  0.13655914  0.52662016  0.60429752    -0.05700
C148        C  0.16690830  0.56251262  0.60422133     0.00300
C149        C  0.15517577  0.60298501  0.59830171    -0.08300
C150        C  0.11357497  0.60575296  0.59238406    -0.05700
C151        C  0.08337785  0.56983491  0.59230934     0.00300
C152        C  0.09466042  0.52952339  0.59843207    -0.08200
C153        C  0.06259734  0.48997996  0.59897564     0.62200
H154        H  0.14587936  0.49631725  0.60908760     0.12900
H155        H  0.10400849  0.63634684  0.58782905     0.12900
C156        C  0.18538983  0.64387291  0.59875060     0.62400
F157        F  0.08363107  0.45169902  0.60323808    -0.22800
F158        F  0.04593961  0.48032464  0.58750403    -0.20100
F159        F  0.03351974  0.93259677  0.60435430    -0.19800
F160        F  0.22568737  0.63492473  0.59281310    -0.19800
F161        F  0.19455648  0.09746826  0.61167357    -0.20100
F162        F  0.16430603  0.12360885  0.59443028    -0.22800
C163        C  0.28307636  0.00727927  0.66311076    -0.05700
C164        C  0.24301459  0.51685886  0.66787360     0.00300
C165        C  0.21803430  0.49152688  0.65928458    -0.08300
C166        C  0.22103858  0.50273207  0.64679986    -0.05700
C167        C  0.24832587  0.53780601  0.64261239     0.00300
C168        C  0.28473254  0.01429668  0.65041052    -0.08200
C169        C  0.31589356  0.05007436  0.64533458     0.62200
H170        H  0.30486323  0.02619408  0.66908856     0.12900
H171        H  0.20230515  0.48369932  0.64011775     0.12900
C172        C  0.18960175  0.45176268  0.66314790     0.62400
F173        F  0.33547272  0.07506608  0.65455113    -0.22800
F174        F  0.29189951  0.07927640  0.63805399    -0.20100
F175        F  0.35014370  0.03033518  0.63853633    -0.19800
F176        F  0.15345158  0.46631537  0.67017665    -0.19800
F177        F  0.21535376  0.42212482  0.66983362    -0.20100
F178        F  0.17279741  0.42869401  0.65317663    -0.22800
C179        C  0.36362994  0.53070851  0.55198142    -0.05700
C180        C  0.33309695  0.56629906  0.55353931     0.00300
C181        C  0.34927445  0.05777011  0.56153484    -0.08300
C182        C  0.38734946  0.60445318  0.56621804    -0.05700
C183        C  0.41762879  0.56849481  0.56491472     0.00300
C184        C  0.40593654  0.53092600  0.55760063    -0.08200
C185        C  0.43759654  0.49119493  0.55571225     0.62200
H186        H  0.35398397  0.50268481  0.54624444     0.12900
H187        H  0.40121378  0.08430278  0.57313125     0.12900
C188        C  0.31732103  0.09688089  0.56385767     0.62400
F189        F  0.47415692  0.50388905  0.54868435    -0.22800
F190        F  0.41882820  0.90969431  0.54996706    -0.20100
F191        F  0.45240954  0.47552508  0.56685168    -0.19800
F192        F  0.30498110  0.11576831  0.55285510    -0.19800
F193        F  0.33323596  0.67824168  0.56896700    -0.20100
F194        F  0.27462626  0.63182349  0.56802447    -0.22800
C195        C  0.14509837  0.60740514  0.55287624    -0.05700
C196        C  0.16809343  0.56626137  0.55292046     0.00300
C197        C  0.14929305  0.52911266  0.55904621    -0.08300
C198        C  0.10767732  0.53458789  0.56507596    -0.05700
C199        C  0.08484676  0.57592326  0.56523908     0.00300
C200        C  0.10347175  0.61302940  0.55894705    -0.08200
C201        C  0.07960603  0.65819069  0.55850165     0.62200
H202        H  0.16009697  0.63514719  0.54798564     0.12900
H203        H  0.09918243  0.95045087  0.56783213     0.12900
C204        C  0.17981435  0.93405603  0.55640519     0.62400
F205        F  0.10701524  0.69108697  0.55362547    -0.22800
F206        F  0.06570531  0.11481972  0.57179574    -0.20100
F207        F  0.04196375  0.65492192  0.55126804    -0.19800
F208        F  0.22036253  0.93593183  0.56244470    -0.19800
F209        F  0.18073713  0.46960621  0.54719069    -0.20100
F210        F  0.14762804  0.45154858  0.56497904    -0.22800
C211        C  0.28012535  0.59093749  0.49466202    -0.05700
C212        C  0.25133080  0.56168357  0.48845613     0.00300
C213        C  0.22432588  0.53149646  0.49525783    -0.08300
C214        C  0.22598482  0.53302386  0.50812577    -0.05700
C215        C  0.25455974  0.56254594  0.51433282     0.00300
C216        C  0.28254964  0.59185894  0.50750287    -0.08200
C217        C  0.31450635  0.62448398  0.51361881     0.62200
H218        H  0.31085152  0.05445520  0.48866313     0.12900
H219        H  0.20504698  0.51075542  0.51348363     0.12900
C220        C  0.19475968  0.49701004  0.48904948     0.62400
F221        F  0.33308455  0.65421969  0.50533033    -0.22800
F222        F  0.34938422  0.60102230  0.51892560    -0.20100
F223        F  0.30191470  0.10083172  0.52085397    -0.19800
F224        F  0.15825836  0.51821534  0.48386398    -0.19800
F225        F  0.16446745  0.93176529  0.49894123    -0.20100
F226        F  0.20523521  0.92701844  0.48169753    -0.22800
C227        C  0.40185174  0.60312622  0.44062193    -0.05700
C228        C  0.42257978  0.56182202  0.43788790     0.00300
C229        C  0.40296142  0.52169672  0.44224659    -0.08300
C230        C  0.36104792  0.52414869  0.44834649    -0.05700
C231        C  0.33889798  0.56526277  0.45024030     0.00300
C232        C  0.35971525  0.60551633  0.44654076    -0.08200
C233        C  0.33711354  0.65061781  0.44872463     0.62200
H234        H  0.41855762  0.63356332  0.43777723     0.12900
H235        H  0.34494937  0.49391853  0.45159806     0.12900
C236        C  0.42627821  0.47672005  0.44055514     0.62400
F237        F  0.40901574  0.09980510  0.46043968    -0.22800
F238        F  0.37367996  0.05298249  0.47313631    -0.20100
F239        F  0.29787066  0.65279751  0.44208530    -0.19800
F240        F  0.44155414  0.91141635  0.42297503    -0.19800
F241        F  0.43091397  0.46716297  0.42825515    -0.20100
F242        F  0.40229324  0.44226380  0.44593491    -0.22800
C243        C  0.14381384  0.60363472  0.45080088    -0.05700
C244        C  0.17348454  0.56752270  0.44886150     0.00300
C245        C  0.16889442  0.96757820  0.44051989    -0.08300
C246        C  0.12613100  0.96773633  0.43516529    -0.05700
C247        C  0.08992109  0.57113284  0.43669273     0.00300
C248        C  0.10216318  0.60634074  0.44480100    -0.08200
C249        C  0.07131019  0.64611149  0.44747670     0.62200
H250        H  0.15348800  0.62970636  0.45718111     0.12900
H251        H  0.11655625  0.94048622  0.42919071     0.12900
C252        C  0.20179363  0.92988164  0.43751215     0.62400
F253        F  0.03629655  0.63293404  0.45499702    -0.22800
F254        F  0.04935694  0.08978066  0.43955718    -0.20100
F255        F  0.09387763  0.68050279  0.45330353    -0.19800
F256        F  0.21613253  0.90980849  0.44817112    -0.19800
F257        F  0.23054861  0.50583510  0.43257168    -0.20100
F258        F  0.17183823  0.45938116  0.43164309    -0.22800
C259        C  0.22840986  0.51300311  0.35454295    -0.05700
C260        C  0.26364772  0.02278169  0.35870972     0.00300
C261        C  0.29598978  0.04699052  0.35175893    -0.08300
C262        C  0.29472154  0.04436217  0.33890797    -0.05700
C263        C  0.26290818  0.01830979  0.33272932     0.00300
C264        C  0.22450145  0.50436269  0.34192805    -0.08200
C265        C  0.19239878  0.46819038  0.33763295     0.62200
H266        H  0.20807625  0.49439544  0.36099607     0.12900
H267        H  0.31921633  0.06258796  0.33352063     0.12900
C268        C  0.33195382  0.07560815  0.35768870     0.62400
F269        F  0.17596117  0.44303067  0.34728002    -0.22800
F270        F  0.21415478  0.43915312  0.32959193    -0.20100
F271        F  0.15615536  0.48779301  0.33189613    -0.19800
F272        F  0.36411612  0.04814398  0.36284614    -0.19800
F273        F  0.31302627  0.10311001  0.36660323    -0.20100
F274        F  0.35340176  0.10290458  0.34927308    -0.22800
C275        C  0.39529848  0.03927568  0.41381193    -0.05700
C276        C  0.42190488  0.56386113  0.41053152     0.00300
C277        C  0.41058280  0.52768587  0.40261181    -0.08300
C278        C  0.36968059  0.52964142  0.39628682    -0.05700
C279        C  0.34351704  0.01638874  0.39794375     0.00300
C280        C  0.35316716  0.04380343  0.40820144    -0.08200
C281        C  0.31971448  0.07832420  0.41309718     0.62200
H282        H  0.40369814  0.06086616  0.42143221     0.12900
H283        H  0.36091490  0.50226211  0.39019687     0.12900
C284        C  0.43938883  0.48607016  0.40038348     0.62400
F285        F  0.33856032  0.10586221  0.42187672    -0.22800
F286        F  0.28348568  0.05680794  0.41842416    -0.20100
F287        F  0.30795706  0.65934387  0.39632574    -0.19800
F288        F  0.42290708  0.90307674  0.39353629    -0.19800
F289        F  0.47728211  0.48401217  0.40752914    -0.20100
F290        F  0.45283439  0.48480786  0.38823875    -0.22800
C291        C  0.15658595  0.05463966  0.40156723    -0.05700
C292        C  0.17815293  0.01524832  0.39758566     0.00300
C293        C  0.14694377  0.52638375  0.39934747    -0.08300
C294        C  0.10484101  0.53101891  0.40519259    -0.05700
C295        C  0.08889779  0.57279783  0.40939588     0.00300
C296        C  0.11492907  0.05366079  0.40779484    -0.08200
C297        C  0.09466755  0.09849058  0.41158795     0.62200
H298        H  0.17243690  0.08661964  0.39974052     0.12900
H299        H  0.08439481  0.50170225  0.40687613     0.12900
C300        C  0.16398698  0.48028277  0.39553118     0.62400
F301        F  0.12057431  0.11716340  0.42071281    -0.22800
F302        F  0.05090143  0.09533599  0.41576816    -0.20100
F303        F  0.10793935  0.68690976  0.40041859    -0.19800
F304        F  0.22430818  0.92901684  0.40250482    -0.19800
F305        F  0.16993900  0.47851163  0.38298822    -0.20100
F306        F  0.13424393  0.44679524  0.39880777    -0.22800
C307        C  0.35731764  0.05385916  0.28565239    -0.05700
C308        C  0.35296489  0.01973406  0.29434668     0.00300
C309        C  0.35983420  0.47572384  0.29364150    -0.08300
C310        C  0.39424230  0.47391343  0.28477218    -0.05700
C311        C  0.42323515  0.01730800  0.27684995     0.00300
C312        C  0.39203498  0.05353661  0.27685097    -0.08200
C313        C  0.39376269  0.09070336  0.26739321     0.62200
H314        H  0.33184798  0.07996532  0.28552180     0.12900
H315        H  0.41558959  0.44443613  0.28412713     0.12900
C316        C  0.35129679  0.43593758  0.30192978     0.62400
F317        F  0.35811292  0.12047594  0.26869701    -0.22800
F318        F  0.39197088  0.07257660  0.25573143    -0.20100
F319        F  0.43303941  0.11477503  0.26869350    -0.19800
F320        F  0.30865793  0.41936124  0.29990787    -0.19800
F321        F  0.35460591  0.44920704  0.31402472    -0.20100
F322        F  0.38193879  0.40155224  0.29984371    -0.22800
C323        C  0.13591171  0.04716561  0.27916258    -0.05700
C324        C  0.12368508  0.00490317  0.27449185     0.00300
C325        C  0.14614332  0.96575176  0.27873860    -0.08300
C326        C  0.17940013  0.97073284  0.28767413    -0.05700
C327        C  0.19133526  0.01294230  0.29218004     0.00300
C328        C  0.17001408  0.05190602  0.28781415    -0.08200
C329        C  0.18420052  0.09820103  0.29209036     0.62200
H330        H  0.11889605  0.07685906  0.27586442     0.12900
H331        H  0.19754264  0.94170290  0.29099582     0.12900
C332        C  0.13670283  0.91913356  0.27369863     0.62400
F333        F  0.09560292  0.60129365  0.30235150    -0.22800
F334        F  0.17074942  0.59955124  0.30323277    -0.20100
F335        F  0.17865427  0.10159389  0.30463330    -0.19800
F336        F  0.14376013  0.44545683  0.25586517    -0.19800
F337        F  0.09340388  0.90657880  0.27678447    -0.20100
F338        F  0.16574434  0.88719238  0.27835595    -0.22800
C339        C  0.40655272  0.97539400  0.71448101    -0.05700
C340        C  0.39139973  0.47121584  0.72383188     0.00300
C341        C  0.38055512  0.43828223  0.71483238    -0.08300
C342        C  0.34616320  0.44782688  0.70642414    -0.05700
C343        C  0.32318401  0.48890696  0.70662272     0.00300
C344        C  0.33554629  0.52255551  0.71505529    -0.08200
C345        C  0.38228052  0.00459281  0.69389479     0.62200
H346        H  0.43866334  0.99160259  0.71308054     0.12900
H347        H  0.33564675  0.42260162  0.69990304     0.12900
C348        C  0.40466400  0.39328901  0.71398038     0.62400
F349        F  0.33266233  0.59781118  0.72314779    -0.22800
F350        F  0.26805017  0.56420606  0.71837624    -0.20100
F351        F  0.37900972  0.97625741  0.68388540    -0.19800
F352        F  0.39569436  0.36842126  0.72435258    -0.19800
F353        F  0.37848754  0.86788726  0.74009126    -0.20100
F354        F  0.39101328  0.36843536  0.70395720    -0.22800
C355        C  0.12002930  0.01493629  0.72242316    -0.05700
C356        C  0.09073755  0.48032061  0.72421134     0.00300
C357        C  0.11887036  0.44299990  0.72119919    -0.08300
C358        C  0.15349688  0.44883022  0.71252685    -0.05700
C359        C  0.16074327  0.48997117  0.70675469     0.00300
C360        C  0.15572418  0.01883907  0.71401640    -0.08200
C361        C  0.17947785  0.06335772  0.71235711     0.62200
H362        H  0.10918556  0.04420098  0.72759549     0.12900
H363        H  0.17623974  0.42136045  0.71034258     0.12900
C364        C  0.11371486  0.39744390  0.72724132     0.62400
F365        F  0.15937156  0.09730286  0.71920330    -0.22800
F366        F  0.17850535  0.07554709  0.70017631    -0.20100
F367        F  0.22369896  0.05945846  0.71599117    -0.19800
F368        F  0.07245639  0.37933328  0.72432115    -0.19800
F369        F  0.11718843  0.40193222  0.73980335    -0.20100
F370        F  0.14650473  0.36727739  0.72338345    -0.22800
C371        C  0.46633237  0.33282089  0.21355567    -0.05700
C372        C  0.97848793  0.34075599  0.20630673     0.00300
C373        C  0.01454000  0.37135657  0.20580543    -0.08300
C374        C  0.01644584  0.40549745  0.21471240    -0.05700
C375        C  0.98293391  0.41038832  0.22377367     0.00300
C376        C  0.46314659  0.36556605  0.22282130    -0.08200
C377        C  0.41940397  0.36994695  0.23006108     0.62200
H378        H  0.43887552  0.30977229  0.21205907     0.12900
H379        H  0.04458571  0.42839278  0.21478136     0.12900
C380        C  0.05148284  0.36694846  0.19619725     0.62400
F381        F  0.38716348  0.34014019  0.22603345    -0.22800
F382        F  0.40194067  0.41273793  0.22876032    -0.20100
F383        F  0.42699118  0.36129593  0.24228729    -0.19800
F384        F  0.03311970  0.37089240  0.18468386    -0.19800
F385        F  0.07251540  0.32563993  0.19716360    -0.20100
F386        F  0.08372028  0.39991682  0.19745024    -0.22800
C387        C  0.02670145  0.15368374  0.20774664    -0.05700
C388        C  0.98715216  0.17914724  0.20882357     0.00300
C389        C  0.48016705  0.14019329  0.20949735    -0.08300
C390        C  0.48375560  0.10539412  0.21801309    -0.05700
C391        C  0.00421359  0.10883263  0.22521159     0.00300
C392        C  0.03645452  0.11909825  0.21600549    -0.08200
C393        C  0.08097363  0.09412782  0.21490697     0.62200
H394        H  0.05097603  0.16270597  0.20074108     0.12900
H395        H  0.45468683  0.08487684  0.21998632     0.12900
C396        C  0.43526872  0.15074630  0.20366677     0.62400
F397        F  0.10494419  0.10646440  0.20455192    -0.22800
F398        F  0.07355222  0.04840882  0.21423374    -0.20100
F399        F  0.10712589  0.10366246  0.22496907    -0.19800
F400        F  0.43961178  0.14956284  0.19106704    -0.19800
F401        F  0.42103645  0.19308275  0.20729913    -0.20100
F402        F  0.40247801  0.12030541  0.20702463    -0.22800
C403        C  0.00474642  0.21603886  0.14845871    -0.05700
C404        C  0.98097700  0.24912340  0.14206141     0.00300
C405        C  0.47170373  0.27175359  0.14919434    -0.08300
C406        C  0.47933705  0.27240800  0.16185573    -0.05700
C407        C  0.98416792  0.25020884  0.16806757     0.00300
C408        C  0.00695880  0.21579467  0.16132974    -0.08200
C409        C  0.03446622  0.17933591  0.16748992     0.62200
H410        H  0.02199501  0.19013203  0.14321948     0.12900
H411        H  0.46027578  0.29527025  0.16766360     0.12900
C412        C  0.43612327  0.30274510  0.14393316     0.62400
F413        F  0.05896346  0.15391527  0.15910729    -0.22800
F414        F  0.00627996  0.15050666  0.17373850    -0.20100
F415        F  0.06458508  0.19846437  0.17551540    -0.19800
F416        F  0.40586564  0.27806145  0.13716606    -0.19800
F417        F  0.45613613  0.33457751  0.13655911    -0.20100
F418        F  0.41219795  0.32532858  0.15301059    -0.22800
C419        C  0.95301197  0.37966886  0.08876406    -0.05700
C420        C  0.98951705  0.40809151  0.09101737     0.00300
C421        C  0.02448007  0.39329615  0.09877127    -0.08300
C422        C  0.02059761  0.35113424  0.10434351    -0.05700
C423        C  0.98430547  0.32273612  0.10199859     0.00300
C424        C  0.95034924  0.33657433  0.09385590    -0.08200
C425        C  0.91138621  0.30633405  0.09061469     0.62200
H426        H  0.92683350  0.39135015  0.08277249     0.12900
H427        H  0.04598105  0.33998791  0.11069547     0.12900
C428        C  0.06544659  0.42166567  0.10143210     0.62400
F429        F  0.88079769  0.32758954  0.08310868    -0.22800
F430        F  0.88896717  0.29339605  0.10114584    -0.20100
F431        F  0.42252316  0.25569221  0.08581228    -0.19800
F432        F  0.08237149  0.44023789  0.09078949    -0.19800
F433        F  0.59356777  0.39410388  0.10586258    -0.20100
F434        F  0.54492221  0.45106892  0.10808304    -0.22800
C435        C  0.02349670  0.13778057  0.10176933    -0.05700
C436        C  0.98172278  0.15792706  0.10427131     0.00300
C437        C  0.43883160  0.12226166  0.10381265    -0.08300
C438        C  0.44070317  0.08110334  0.09741875    -0.05700
C439        C  0.98667159  0.07455517  0.09203693     0.00300
C440        C  0.02665905  0.09561001  0.09594030    -0.08200
C441        C  0.07204176  0.07252450  0.09460681     0.62200
H442        H  0.05356645  0.15503168  0.10464348     0.12900
H443        H  0.41049732  0.06158756  0.09618949     0.12900
C444        C  0.39511544  0.13816688  0.10966408     0.62400
F445        F  0.10677317  0.09979005  0.09841553    -0.22800
F446        F  0.08030470  0.06068609  0.08257541    -0.20100
F447        F  0.07232055  0.03429847  0.10168845    -0.19800
F448        F  0.38386927  0.18019775  0.10534584    -0.19800
F449        F  0.40014436  0.14042879  0.12221623    -0.20100
F450        F  0.35998688  0.10934580  0.10717519    -0.22800
C451        C  0.47157187  0.33401438  0.95191021    -0.05700
C452        C  0.01149786  0.30966547  0.94892436     0.00300
C453        C  0.04283343  0.32141075  0.93967584    -0.08300
C454        C  0.03825404  0.36332021  0.93393720    -0.05700
C455        C  0.00294272  0.39313475  0.93692586     0.00300
C456        C  0.46884921  0.37618693  0.94621825    -0.08200
C457        C  0.43019374  0.40754866  0.94963830     0.62200
H458        H  0.44625560  0.32430548  0.95855921     0.12900
H459        H  0.06251895  0.37332820  0.92704968     0.12900
C460        C  0.08183699  0.29066009  0.93621819     0.62400
F461        F  0.39929448  0.38716725  0.95732482    -0.22800
F462        F  0.40780964  0.42082350  0.93928289    -0.20100
F463        F  0.44619153  0.44489991  0.95566825    -0.19800
F464        F  0.06582138  0.25254693  0.93054965    -0.22000
F465        F  0.10511298  0.27858939  0.94659547    -0.20100
F466        F  0.11175179  0.31108579  0.92826076    -0.22800
C467        C  0.46330530  0.12394601  0.94481780    -0.05700
C468        C  0.01352897  0.14449208  0.94969322     0.00300
C469        C  0.05165510  0.11682808  0.94773772    -0.08300
C470        C  0.04608433  0.07513036  0.94186153    -0.05700
C471        C  0.00373029  0.06070096  0.93792832     0.00300
C472        C  0.45852899  0.08188690  0.93912440    -0.08200
C473        C  0.41153677  0.06884916  0.93525511     0.62200
H474        H  0.43413053  0.14562459  0.94593617     0.12900
H475        H  0.07501023  0.05392897  0.93993658     0.12900
C476        C  0.09801239  0.13208525  0.95152443     0.62400
F477        F  0.38224245  0.07431650  0.94506900    -0.22800
F478        F  0.40855618  0.02481684  0.93140115    -0.20100
F479        F  0.39787148  0.09657879  0.92589090    -0.19800
F480        F  0.09871862  0.13944485  0.96401972    -0.19800
F481        F  0.10855764  0.17150030  0.94556687    -0.20100
F482        F  0.13076289  0.10048350  0.94862877    -0.22800
C483        C  0.45510756  0.34044391  0.05094108    -0.05700
C484        C  0.99735501  0.32432090  0.05297308     0.00300
C485        C  0.03430943  0.33862878  0.05999298    -0.08300
C486        C  0.03264193  0.38141312  0.06544806    -0.05700
C487        C  0.99535158  0.40992567  0.06407496     0.00300
C488        C  0.45173301  0.38337381  0.05627806    -0.08200
C489        C  0.41016241  0.41187906  0.05395614     0.62200
H490        H  0.42885877  0.32842736  0.04498128     0.12900
H491        H  0.06026060  0.39282766  0.07100510     0.12900
C492        C  0.07565090  0.30916255  0.06145902     0.62400
F493        F  0.37741110  0.38791566  0.04787935    -0.22800
F494        F  0.42135226  0.44826449  0.04680378    -0.20100
F495        F  0.39175996  0.42693133  0.06490514    -0.19800
F496        F  0.09289973  0.29757956  0.05006427    -0.19800
F497        F  0.06431647  0.27064372  0.06772599    -0.20100
F498        F  0.10907319  0.33074649  0.06790739    -0.22800
C499        C  0.45000673  0.13516926  0.05856363    -0.05700
C500        C  0.99686759  0.15913916  0.05283222     0.00300
C501        C  0.03483449  0.13071909  0.05385487    -0.08300
C502        C  0.03001345  0.08968110  0.05999916    -0.05700
C503        C  0.98846676  0.07598119  0.06484362     0.00300
C504        C  0.44375634  0.09349461  0.06428253    -0.08200
C505        C  0.39609900  0.08187137  0.06814521     0.62200
H506        H  0.42182287  0.15822771  0.05788338     0.12900
H507        H  0.05872718  0.06763534  0.06097709     0.12900
C508        C  0.08029940  0.14404664  0.04864474     0.62400
F509        F  0.38132697  0.11179661  0.07703913    -0.22800
F510        F  0.39197680  0.03877936  0.07258343    -0.20100
F511        F  0.36833439  0.08559488  0.05811922    -0.19800
F512        F  0.09422986  0.18340157  0.05414246    -0.19800
F513        F  0.07732197  0.15047330  0.03616683    -0.20100
F514        F  0.11269032  0.11141720  0.05059383    -0.22800
C515        C  0.52105646  0.25691197  0.99438178    -0.05700
C516        C  0.01031808  0.23073238  0.98820782     0.00300
C517        C  0.98661115  0.19873307  0.99533067    -0.08300
C518        C  0.98520997  0.20419661  0.00810325    -0.05700
C519        C  0.00559249  0.24059778  0.01403936     0.00300
C520        C  0.52124859  0.26075770  0.00721863    -0.08200
C521        C  0.54903301  0.29761940  0.01308798     0.62200
H522        H  0.53964555  0.28082680  0.98892572     0.12900
H523        H  0.96750454  0.17983151  0.01362385     0.12900
C524        C  0.96142706  0.15968888  0.98963395     0.62400
F525        F  0.57567176  0.31959838  0.00459674    -0.22800
F526        F  0.57719158  0.27943139  0.02176969    -0.20100
F527        F  0.52099229  0.32924026  0.01852210    -0.19800
F528        F  0.99161733  0.12910856  0.98463425    -0.19800
F529        F  0.93297139  0.17526562  0.98065491    -0.20100
F530        F  0.93541889  0.13717051  0.99816255    -0.22800
C531        C  0.02276929  0.32470955  0.79087590    -0.05700
C532        C  0.48603656  0.28305891  0.79194498     0.00300
C533        C  0.45068582  0.29110759  0.78370829    -0.08300
C534        C  0.45574355  0.32511613  0.77503137    -0.05700
C535        C  0.98851783  0.37101593  0.77517857     0.00300
C536        C  0.02705714  0.35870928  0.78205946    -0.08200
C537        C  0.07255521  0.38074837  0.78021884     0.62200
H538        H  0.05175119  0.31362389  0.79597960     0.12900
H539        H  0.42943672  0.33045474  0.76842381     0.12900
C540        C  0.40723038  0.26477343  0.78425908     0.62400
F541        F  0.10396647  0.36540337  0.78848994    -0.22800
F542        F  0.06849689  0.42666962  0.78180632    -0.20100
F543        F  0.08886237  0.37129233  0.76858902    -0.19800
F544        F  0.39094046  0.26420925  0.79615704    -0.19800
F545        F  0.41482805  0.22138329  0.78023849    -0.20100
F546        F  0.37438632  0.28359606  0.77698189    -0.22800
C547        C  0.45533958  0.06426835  0.78393429    -0.05700
C548        C  0.49718713  0.05218681  0.77866059     0.00300
C549        C  0.03806086  0.09540985  0.78114980    -0.08300
C550        C  0.03292114  0.13039127  0.78974651    -0.05700
C551        C  0.49058553  0.12162968  0.79632442     0.00300
C552        C  0.45152972  0.09853214  0.79282662    -0.08200
C553        C  0.40623904  0.11059350  0.79849354     0.62200
H554        H  0.42538721  0.04729035  0.78088610     0.12900
H555        H  0.06134800  0.15099310  0.79218712     0.12900
C556        C  0.08445600  0.08604909  0.77572000     0.62400
F557        F  0.37233790  0.08322200  0.79422947    -0.22800
F558        F  0.89431725  0.16911455  0.79486194    -0.20100
F559        F  0.40840262  0.10595077  0.81105584    -0.19800
F560        F  0.08355645  0.09122730  0.76315750    -0.19800
F561        F  0.59203511  0.01548809  0.78094719    -0.20100
F562        F  0.11654036  0.11498847  0.78027417    -0.22800
C563        C  0.01091275  0.19710161  0.83932113    -0.05700
C564        C  0.49355681  0.21797357  0.83338161     0.00300
C565        C  0.47205114  0.25318848  0.84013070    -0.08300
C566        C  0.47425323  0.25276402  0.85299874    -0.05700
C567        C  0.49700488  0.21890963  0.85936073     0.00300
C568        C  0.01330581  0.19513980  0.85215270    -0.08200
C569        C  0.04615008  0.16254104  0.85796463     0.62200
H570        H  0.03099066  0.17408886  0.83381784     0.12900
H571        H  0.45739735  0.27884458  0.85826465     0.12900
C572        C  0.44605357  0.29079560  0.83400306     0.62400
F573        F  0.07532612  0.14372518  0.84939733    -0.22800
F574        F  0.02286660  0.12806334  0.86351693    -0.20100
F575        F  0.07186582  0.18464532  0.86655517    -0.19800
F576        F  0.41451310  0.27312421  0.82614540    -0.19800
F577        F  0.47545860  0.31786629  0.82757463    -0.20100
F578        F  0.42335217  0.31768376  0.84242222    -0.22800
C579        C  0.02783812  0.37979898  0.90354555    -0.05700
C580        C  0.98969121  0.39502526  0.91001882     0.00300
C581        C  0.45297121  0.36787703  0.90790421    -0.08300
C582        C  0.45416139  0.32572402  0.90199209    -0.05700
C583        C  0.98915024  0.31163891  0.89756513     0.00300
C584        C  0.02814053  0.33858385  0.89719950    -0.08200
C585        C  0.07004383  0.32345289  0.89026391     0.62200
H586        H  0.05774094  0.40034056  0.90367392     0.12900
H587        H  0.42300520  0.30802928  0.90039276     0.12900
C588        C  0.40700526  0.38723026  0.91107694     0.62400
F589        F  0.10546468  0.35267915  0.89194496    -0.22800
F590        F  0.06114811  0.32131014  0.87788782    -0.20100
F591        F  0.08331483  0.28153779  0.89425518    -0.19800
F592        F  0.40861431  0.43077220  0.91541305    -0.19800
F593        F  0.38657770  0.36066848  0.91981688    -0.20100
F594        F  0.38073254  0.38734919  0.90070662    -0.22800
C595        C  0.02888503  0.09152363  0.91154670    -0.05700
C596        C  0.99181448  0.06256581  0.91096130     0.00300
C597        C  0.45698837  0.06849540  0.90234909    -0.08300
C598        C  0.45942673  0.11026657  0.89644763    -0.05700
C599        C  0.99165801  0.14602690  0.89863721     0.00300
C600        C  0.02967173  0.13294025  0.90544168    -0.08200
C601        C  0.07234249  0.16057889  0.90539345     0.62200
H602        H  0.05812648  0.08055973  0.91653184     0.12900
H603        H  0.43334932  0.11970947  0.89008873     0.12900
C604        C  0.41675944  0.03943970  0.89931339     0.62400
F605        F  0.10509781  0.14209307  0.91275960    -0.22800
F606        F  0.06357537  0.20345531  0.90961934    -0.20100
F607        F  0.08922730  0.16270172  0.89358085    -0.19800
F608        F  0.37803743  0.06540187  0.89941378    -0.19800
F609        F  0.41000598  0.00496607  0.90746123    -0.20100
F610        F  0.42279787  0.02143211  0.88772322    -0.22800
C611        C  0.00264165  0.76735326  0.89147736     0.80300
N612        N  0.00110861  0.72888120  0.89806669    -0.78000
C613        C  0.99703959  0.68870330  0.89226848     0.82800
N614        N  0.49886491  0.67997144  0.87957347    -0.77900
C615        C  0.49764429  0.71728663  0.87256586     0.82900
N616        N  0.49825818  0.75830069  0.87816860    -0.79600
C617        C  0.48688584  0.70635560  0.81943235     0.80300
N618        N  0.48773958  0.66489581  0.81409938    -0.78000
C619        C  0.48816088  0.66084022  0.80174132     0.82800
N620        N  0.48790872  0.69786131  0.79470351    -0.77900
C621        C  0.48662004  0.73914101  0.79981646     0.82900
N622        N  0.48701253  0.74346810  0.81220511    -0.79600
C623        C  0.00199829  0.70250475  0.04611583     0.80300
N624        N  0.00553163  0.70222760  0.03374335    -0.78000
C625        C  0.00807924  0.74119826  0.02743387     0.82800
N626        N  0.00595390  0.78077436  0.03361609    -0.77900
C627        C  0.00242331  0.78146737  0.04600889     0.82900
N628        N  0.00022381  0.74223851  0.05227787    -0.79600
C629        C  0.02385225  0.76757734  0.95579442     0.80300
N630        N  0.02359221  0.72776990  0.94963064    -0.78000
C631        C  0.02242730  0.68848564  0.95589895     0.82800
N632        N  0.02032517  0.68925961  0.96832273    -0.77900
C633        C  0.01973019  0.72884115  0.97454665     0.82900
N634        N  0.02153708  0.76782393  0.96820833    -0.79600
C635        C  0.99011809  0.78039505  0.10964790     0.80300
N636        N  0.98452537  0.73979351  0.10418604    -0.78000
C637        C  0.98551538  0.70179505  0.11100310     0.82800
N638        N  0.99258501  0.70458807  0.12325666    -0.77900
C639        C  0.99813359  0.74517567  0.12881883     0.82900
N640        N  0.99760763  0.78251783  0.12182664    -0.79600
C641        C  0.03102146  0.75164485  0.18146911     0.80300
N642        N  0.02744262  0.71514256  0.18878670    -0.78000
C643        C  0.03350118  0.71872616  0.20102091     0.82800
N644        N  0.04278045  0.75900420  0.20606223    -0.77900
C645        C  0.04614475  0.79588895  0.19897958     0.82900
N646        N  0.03966007  0.79234860  0.18671408    -0.79600
C647        C  0.99053439  0.53333289  0.08476334     0.02400
C648        C  0.99243880  0.53407060  0.07182654     0.02400
C649        C  0.99543840  0.49354468  0.06529787    -0.18100
C650        C  0.98941461  0.95143072  0.07127688     0.02400
C651        C  0.98911269  0.95038752  0.08420492     0.02400
C652        C  0.98906622  0.49203164  0.09083278    -0.18100
H653        H  0.98579526  0.49162832  0.10070274     0.04400
H654        H  0.99878727  0.49425973  0.05542883     0.04400
C655        C  0.00238605  0.51847593  0.93051705     0.02400
C656        C  0.99573608  0.51904792  0.91766994     0.02400
C657        C  0.99307748  0.47824847  0.91122494    -0.18100
C658        C  0.99991030  0.93699301  0.91738226     0.02400
C659        C  0.00580660  0.93668754  0.93025346     0.02400
C660        C  0.00598903  0.47707295  0.93651426    -0.18100
H661        H  0.01176638  0.47659130  0.94628786     0.04400
H662        H  0.98981799  0.47850147  0.90136615     0.04400
In663      In  0.49244385  0.45584839  0.74956998     1.36900
C664        C  0.99725233  0.90474010  0.76729673     0.77700
O665        O  0.44085450  0.49685840  0.73975897    -0.60700
O666        O  0.45028392  0.91855422  0.73963580    -0.51600
C667        C  0.49392203  0.51678468  0.76727668     0.70400
O668        O  0.02648518  0.51957071  0.76220054    -0.46500
C669        C  0.06460396  0.97223978  0.73457104     0.75100
O670        O  0.46385167  0.90307335  0.76155427    -0.58400
O671        O  0.04599603  0.00739753  0.73869002    -0.48500
O672        O  0.03346840  0.92008093  0.76298810    -0.54800
C673        C  0.43490001  0.95335089  0.73468364     0.85300
O674        O  0.45869081  0.49601840  0.76437951    -0.56700
O675        O  0.03893602  0.44209884  0.73776783    -0.60000
In676      In  0.00381668  0.50570278  0.25058257     1.36900
C677        C  0.01729203  0.57394594  0.23544911     0.77700
O678        O  0.47182562  0.97152991  0.26423018    -0.60700
O679        O  0.45867941  0.53525072  0.26257699    -0.51600
C680        C  0.03270487  0.94372998  0.23189805     0.70400
O681        O  0.06506539  0.96383968  0.23679052    -0.46500
C682        C  0.06879722  0.50100199  0.26697654     0.75100
O683        O  0.98000797  0.56675936  0.24066607    -0.58400
O684        O  0.05789301  0.46817286  0.26035097    -0.48500
O685        O  0.04785603  0.54686281  0.23838537    -0.54800
C686        C  0.43725296  0.50312501  0.26719020     0.85300
O687        O  0.99468845  0.95350305  0.23637117    -0.56700
O688        O  0.07457654  0.03930912  0.25991719    -0.60000
C689        C  0.21700672  0.56282321  0.39098392     0.80300
N690        N  0.25612093  0.56640890  0.39719849    -0.78000
C691        C  0.29621059  0.56335078  0.39115962     0.82800
N692        N  0.29683657  0.55621673  0.37885796    -0.77900
C693        C  0.25784445  0.55343850  0.37253859     0.82900
N694        N  0.21804125  0.55645768  0.37868677    -0.79600
C695        C  0.25096131  0.52192049  0.32018690     0.80300
N696        N  0.21163086  0.51681713  0.31406250    -0.78000
C697        C  0.21199071  0.51075452  0.30172780     0.82800
N698        N  0.25158891  0.50999581  0.29558177    -0.77900
C699        C  0.29071205  0.51522483  0.30151917     0.82900
N700        N  0.29056775  0.52140553  0.31382129    -0.79600
C701        C  0.22193491  0.00273172  0.45584204     0.80300
N702        N  0.26266172  0.00055533  0.45012386    -0.78000
C703        C  0.30108891  0.00157711  0.45674220     0.82800
N704        N  0.29842695  0.00388501  0.46914290    -0.77900
C705        C  0.25782857  0.00574499  0.47496446     0.82900
N706        N  0.21983007  0.00587740  0.46822566    -0.79600
C707        C  0.21657665  0.01876475  0.54648831     0.80300
N708        N  0.25538263  0.02061831  0.55286108    -0.78000
C709        C  0.29546535  0.02080860  0.54684700     0.82800
N710        N  0.29655538  0.01846691  0.53444721    -0.77900
C711        C  0.25791378  0.01744508  0.52797346     0.82900
N712        N  0.21787392  0.01738606  0.53407700    -0.79600
C713        C  0.25180048  0.97420900  0.68189988     0.80300
N714        N  0.21238361  0.97973878  0.68811974    -0.78000
C715        C  0.21185562  0.97913937  0.70049938     0.82800
N716        N  0.25037099  0.97229303  0.70663120    -0.77900
C717        C  0.28999298  0.96690242  0.70060538     0.82900
N718        N  0.29067116  0.96799922  0.68817494    -0.79600
C719        C  0.29304936  0.00023399  0.61045954     0.80300
N720        N  0.25321788  0.00296325  0.60459076    -0.78000
C721        C  0.21401267  0.00100048  0.61101918     0.82800
N722        N  0.21477098  0.99610941  0.62337219    -0.77900
C723        C  0.25465609  0.99418676  0.62933205     0.82900
N724        N  0.29355495  0.99609534  0.62279431    -0.79600
C725        C  0.04660479  0.02029409  0.57236752     0.02400
C726        C  0.04595594  0.01242129  0.58514890     0.02400
C727        C  0.00462695  0.01163530  0.59142232    -0.18100
C728        C  0.46370187  0.01665387  0.58515699     0.02400
C729        C  0.46426637  0.02135514  0.57228246     0.02400
C730        C  0.00587548  0.02417770  0.56612980    -0.18100
H731        H  0.00629447  0.02878847  0.55632172     0.04400
H732        H  0.00408009  0.00753885  0.60124755     0.04400
C733        C  0.05222279  0.00648232  0.41739175     0.02400
C734        C  0.05229302  0.00189337  0.43030469     0.02400
C735        C  0.01132564  0.99576827  0.43656846    -0.18100
C736        C  0.46964892  0.99363714  0.42969358     0.02400
C737        C  0.46965870  0.00346078  0.41699351     0.02400
C738        C  0.01115023  0.00609685  0.41116303    -0.18100
H739        H  0.01112038  0.01078380  0.40133796     0.04400
H740        H  0.01128198  0.99107451  0.44638187     0.04400
C741        C  0.36326333  0.04078406  0.60625333    -0.05700
C742        C  0.33582980  0.00396210  0.60366328     0.00300
C743        C  0.35052911  0.97090789  0.59519137    -0.08300
C744        C  0.39337313  0.97530975  0.58981266    -0.05700
C745        C  0.42065147  0.01267340  0.59215920     0.00300
C746        C  0.40525013  0.04635556  0.60044305    -0.08200
C747        C  0.42611672  0.64761276  0.60035976     0.62200
H748        H  0.35116611  0.06550243  0.61282659     0.12900
H749        H  0.40556827  0.94994662  0.58348701     0.12900
C750        C  0.32109273  0.93130535  0.59186989     0.62400
F751        F  0.47042528  0.07760349  0.60946980    -0.22800
F752        F  0.40783809  0.11943356  0.60984013    -0.20100
F753        F  0.43955491  0.66317786  0.58902071    -0.19800
F754        F  0.28304681  0.94648808  0.58599349    -0.19800
F755        F  0.30979830  0.46541107  0.60696795    -0.20100
F756        F  0.34311186  0.90135874  0.58412133    -0.22800
C757        C  0.14281095  0.96711856  0.60426688    -0.05700
C758        C  0.17083597  0.00472422  0.60461057     0.00300
C759        C  0.15722974  0.04502986  0.59895688    -0.08300
C760        C  0.11591240  0.04607186  0.59288751    -0.05700
C761        C  0.08820932  0.00825591  0.59222224     0.00300
C762        C  0.10146955  0.96796942  0.59809397    -0.08200
C763        C  0.07281431  0.92586636  0.59775495     0.62200
H764        H  0.15388863  0.93689446  0.60881048     0.12900
H765        H  0.10483093  0.07662175  0.58858340     0.12900
C766        C  0.18571183  0.08707118  0.59959064     0.62400
F767        F  0.09486774  0.88947146  0.60278863    -0.22800
F768        F  0.06236026  0.91494753  0.58582459    -0.20100
F769        F  0.02716674  0.49999405  0.60680824    -0.19800
F770        F  0.22579841  0.08017333  0.59335074    -0.19800
F771        F  0.19355904  0.65519544  0.61081145    -0.20100
F772        F  0.16597808  0.68063378  0.59315941    -0.22800
C773        C  0.27010736  0.55215964  0.66369464    -0.05700
C774        C  0.25274332  0.97719730  0.66842501     0.00300
C775        C  0.22381721  0.95181169  0.66087869    -0.08300
C776        C  0.22575382  0.95837531  0.64815286    -0.05700
C777        C  0.25559887  0.98907985  0.64281101     0.00300
C778        C  0.27299274  0.56341923  0.65119459    -0.08200
C779        C  0.30121605  0.60324561  0.64727321     0.62200
H780        H  0.28893736  0.57113726  0.67036734     0.12900
H781        H  0.20381809  0.93940392  0.64222958     0.12900
C782        C  0.19183866  0.91719491  0.66615921     0.62400
F783        F  0.31592560  0.62788569  0.65721649    -0.22800
F784        F  0.27610986  0.63157120  0.64000834    -0.20100
F785        F  0.33860749  0.58842242  0.64078625    -0.19800
F786        F  0.15733162  0.93845099  0.67250815    -0.19800
F787        F  0.21471149  0.88898767  0.67397549    -0.20100
F788        F  0.17288507  0.89097842  0.65710035    -0.22800
C789        C  0.36837786  0.98647918  0.55167412    -0.05700
C790        C  0.33790280  0.02184217  0.55364822     0.00300
C791        C  0.34499247  0.60402703  0.56069431    -0.08300
C792        C  0.39161661  0.05717305  0.56710831    -0.05700
C793        C  0.42196791  0.02152392  0.56523753     0.00300
C794        C  0.41016951  0.98518507  0.55751314    -0.08200
C795        C  0.44116780  0.94502328  0.55542729     0.62200
H796        H  0.35899503  0.95960875  0.54550824     0.12900
H797        H  0.39721346  0.63300314  0.57166682     0.12900
C798        C  0.31388536  0.64431016  0.56214024     0.62400
F799        F  0.47648599  0.95701889  0.54785180    -0.22800
F800        F  0.41679514  0.45604237  0.54972520    -0.20100
F801        F  0.45805637  0.92973960  0.56638770    -0.19800
F802        F  0.30380963  0.66133410  0.55074627    -0.19800
F803        F  0.33674570  0.13004555  0.57093912    -0.20100
F804        F  0.27935227  0.08208235  0.56996513    -0.22800
C805        C  0.14900844  0.05869275  0.55401064    -0.05700
C806        C  0.17316583  0.01839803  0.55300580     0.00300
C807        C  0.15514840  0.97849892  0.55785725    -0.08300
C808        C  0.11347718  0.98054913  0.56399357    -0.05700
C809        C  0.08941271  0.02098213  0.56523760     0.00300
C810        C  0.10678161  0.06069229  0.55991590    -0.08200
C811        C  0.08065031  0.10464776  0.56009535     0.62200
H812        H  0.16328216  0.08848024  0.54992357     0.12900
H813        H  0.09261454  0.50655238  0.56977186     0.12900
C814        C  0.17295032  0.48390203  0.55908824     0.62400
F815        F  0.10674678  0.14003244  0.55606382    -0.22800
F816        F  0.06667017  0.67188152  0.57011660    -0.20100
F817        F  0.04410495  0.10125219  0.55246226    -0.19800
F818        F  0.21351382  0.48758131  0.56505384    -0.19800
F819        F  0.18783811  0.92531176  0.54413023    -0.20100
F820        F  0.15525953  0.89877036  0.56115216    -0.22800
C821        C  0.28762342  0.03584473  0.49432071    -0.05700
C822        C  0.25563363  0.00885932  0.48853424     0.00300
C823        C  0.22389907  0.98516316  0.49579621    -0.08300
C824        C  0.22662358  0.98844199  0.50861820    -0.05700
C825        C  0.25897316  0.01513732  0.51439411     0.00300
C826        C  0.28966615  0.04001673  0.50711565    -0.08200
C827        C  0.32342291  0.07222213  0.51265082     0.62200
H828        H  0.30099399  0.61323134  0.48929464     0.12900
H829        H  0.20304055  0.97020487  0.51429647     0.12900
C830        C  0.18709183  0.95668474  0.49020576     0.62400
F831        F  0.34404509  0.09839415  0.50382698    -0.22800
F832        F  0.35666872  0.04844711  0.51857299    -0.20100
F833        F  0.29186423  0.64936512  0.52247373    -0.19800
F834        F  0.15601684  0.98424287  0.48461481    -0.19800
F835        F  0.17879366  0.46550877  0.49725382    -0.20100
F836        F  0.21895506  0.47432384  0.48005595    -0.22800
C837        C  0.42000762  0.02660390  0.44555291    -0.05700
C838        C  0.42731706  0.99153824  0.43711405     0.00300
C839        C  0.39360653  0.95840574  0.43566489    -0.08300
C840        C  0.35266258  0.96361647  0.44207758    -0.05700
C841        C  0.34536339  0.99885476  0.45043339     0.00300
C842        C  0.37983055  0.03068070  0.45236171    -0.08200
C843        C  0.37417801  0.06936269  0.46134829     0.62200
H844        H  0.44615056  0.05141458  0.44663016     0.12900
H845        H  0.32640912  0.93897756  0.44080153     0.12900
C846        C  0.39892826  0.91642826  0.42788818     0.62400
F847        F  0.36434809  0.68583917  0.44518031    -0.22800
F848        F  0.32699753  0.65597877  0.46102545    -0.20100
F849        F  0.33445160  0.09210619  0.45915038    -0.19800
F850        F  0.46830834  0.47785279  0.44581512    -0.19800
F851        F  0.36817691  0.91752531  0.41849120    -0.20100
F852        F  0.39034196  0.87920894  0.43502784    -0.22800
C853        C  0.14790193  0.03614717  0.45142227    -0.05700
C854        C  0.17972789  0.00244421  0.44881013     0.00300
C855        C  0.16123608  0.53223761  0.44087409    -0.08300
C856        C  0.11921594  0.53433992  0.43508712    -0.05700
C857        C  0.09498566  0.00250896  0.43732172     0.00300
C858        C  0.10564298  0.03712869  0.44576952    -0.08200
C859        C  0.07223345  0.07357732  0.44952629     0.62200
H860        H  0.15628242  0.06163844  0.45811384     0.12900
H861        H  0.10876514  0.50700819  0.42924498     0.12900
C862        C  0.19209747  0.49217275  0.43866816     0.62400
F863        F  0.04171039  0.05632404  0.45783982    -0.22800
F864        F  0.05393524  0.66313881  0.43680640    -0.20100
F865        F  0.09353895  0.10957944  0.45498454    -0.19800
F866        F  0.20383445  0.47321432  0.44971644    -0.19800
F867        F  0.23840812  0.94688509  0.43122575    -0.20100
F868        F  0.18261375  0.89709969  0.43025243    -0.22800
C869        C  0.23130248  0.99732813  0.35252341    -0.05700
C870        C  0.25800526  0.54540750  0.35912403     0.00300
C871        C  0.28469074  0.57051489  0.35084167    -0.08300
C872        C  0.28101661  0.56171052  0.33822585    -0.05700
C873        C  0.25127381  0.52940860  0.33363246     0.00300
C874        C  0.23068765  0.99390650  0.33966044    -0.08200
C875        C  0.19708607  0.96261021  0.33368463     0.62200
H876        H  0.20692725  0.97897292  0.35791639     0.12900
H877        H  0.30125267  0.58048201  0.33177585     0.12900
C878        C  0.31575891  0.60748708  0.35518752     0.62400
F879        F  0.17462309  0.93664764  0.34221656    -0.22800
F880        F  0.21918228  0.93377467  0.32565425    -0.20100
F881        F  0.16526724  0.98723208  0.32745077    -0.19800
F882        F  0.35118855  0.58909664  0.36155932    -0.19800
F883        F  0.29229402  0.63713646  0.36269158    -0.20100
F884        F  0.33353348  0.63165506  0.34552230    -0.22800
C885        C  0.39246928  0.60075644  0.41151214    -0.05700
C886        C  0.42699009  0.00681192  0.40997633     0.00300
C887        C  0.41717423  0.97938281  0.39964322    -0.08300
C888        C  0.37605353  0.98575732  0.39365790    -0.05700
C889        C  0.33905821  0.56513821  0.39794401     0.00300
C890        C  0.35050526  0.60149799  0.40568045    -0.08200
C891        C  0.31921018  0.64144375  0.40753771     0.62200
H892        H  0.40274189  0.62929871  0.41691524     0.12900
H893        H  0.36852799  0.96518154  0.38573024     0.12900
C894        C  0.44737858  0.94226056  0.39452846     0.62400
F895        F  0.33883268  0.67496355  0.41444828    -0.22800
F896        F  0.28059637  0.62812159  0.41360680    -0.20100
F897        F  0.30485990  0.10521683  0.40367536    -0.19800
F898        F  0.41405940  0.44829666  0.40280359    -0.19800
F899        F  0.48426249  0.93292552  0.40163164    -0.20100
F900        F  0.46229833  0.95431829  0.38299149    -0.22800
C901        C  0.15753979  0.60688715  0.40159336    -0.05700
C902        C  0.17343314  0.56502792  0.39752673     0.00300
C903        C  0.15851356  0.97323273  0.40010470    -0.08300
C904        C  0.11626953  0.97211791  0.40602270    -0.05700
C905        C  0.09468448  0.01149648  0.41017654     0.00300
C906        C  0.11494100  0.61177632  0.40718079    -0.08200
C907        C  0.09935896  0.65903525  0.41024461     0.62200
H908        H  0.17808328  0.63628046  0.40003380     0.12900
H909        H  0.10026899  0.94023985  0.40780162     0.12900
C910        C  0.18296811  0.92993979  0.39682726     0.62400
F911        F  0.12289257  0.67467299  0.42022434    -0.22800
F912        F  0.05381053  0.66149142  0.41273994    -0.20100
F913        F  0.09465204  0.12704459  0.40165942    -0.19800
F914        F  0.20459139  0.47168128  0.40113076    -0.19800
F915        F  0.18945453  0.92728019  0.38430188    -0.20100
F916        F  0.15918447  0.89256247  0.40054365    -0.22800
C917        C  0.33965518  0.54997916  0.28623426    -0.05700
C918        C  0.33237752  0.51437630  0.29428556     0.00300
C919        C  0.38549137  0.98513487  0.29483909    -0.08300
C920        C  0.42038388  0.98471271  0.28607314    -0.05700
C921        C  0.40124775  0.50917407  0.27648927     0.00300
C922        C  0.37371647  0.54821431  0.27725099    -0.08200
C923        C  0.37851452  0.58697757  0.26836553     0.62200
H924        H  0.31723119  0.57869053  0.28681623     0.12900
H925        H  0.44494283  0.95776921  0.28609029     0.12900
C926        C  0.38171654  0.94733110  0.30401934     0.62400
F927        F  0.34489156  0.61881538  0.27000558    -0.22800
F928        F  0.37606676  0.57120687  0.25646277    -0.20100
F929        F  0.41924555  0.60806499  0.27009429    -0.19800
F930        F  0.34215672  0.92421495  0.30217772    -0.19800
F931        F  0.38190866  0.96463020  0.31577686    -0.20100
F932        F  0.41711772  0.91717745  0.30292855    -0.22800
C933        C  0.10153311  0.53213040  0.28584035    -0.05700
C934        C  0.10327385  0.49878521  0.27667074     0.00300
C935        C  0.13801116  0.46594617  0.27690021    -0.08300
C936        C  0.17113467  0.46962110  0.28590899    -0.05700
C937        C  0.17061056  0.50440558  0.29462254     0.00300
C938        C  0.13470199  0.53560579  0.29485232    -0.08200
C939        C  0.13245372  0.57363833  0.30414053     0.62200
H940        H  0.07424486  0.55627261  0.28575314     0.12900
H941        H  0.19892504  0.44601232  0.28599786     0.12900
C942        C  0.14146679  0.42804784  0.26755539     0.62400
F943        F  0.15908940  0.13185667  0.28671923    -0.22800
F944        F  0.22891009  0.10508799  0.28910156    -0.20100
F945        F  0.12905061  0.55629478  0.31580168    -0.19800
F946        F  0.14198402  0.91887276  0.26110811    -0.19800
F947        F  0.10441098  0.40049313  0.26862421    -0.20100
F948        F  0.17939981  0.40174600  0.26922306    -0.22800
C949        C  0.36942464  0.51313606  0.72353131    -0.05700
C950        C  0.39945399  0.95197881  0.72541790     0.00300
C951        C  0.35846913  0.92945240  0.72748018    -0.08300
C952        C  0.32482029  0.93306423  0.71865594    -0.05700
C953        C  0.33075895  0.95841981  0.70794502     0.00300
C954        C  0.37296237  0.97861532  0.70554256    -0.08200
C955        C  0.31277070  0.56828940  0.71505127     0.62200
H956        H  0.37828812  0.53849952  0.73018974     0.12900
H957        H  0.29274824  0.91702368  0.72024971     0.12900
C958        C  0.34926911  0.90392210  0.73923795     0.62400
F959        F  0.42501391  0.02273464  0.69374705    -0.22800
F960        F  0.35168173  0.03941606  0.69284648    -0.20100
F961        F  0.31562481  0.58650433  0.70346161    -0.19800
F962        F  0.35493427  0.93209621  0.74920025    -0.19800
F963        F  0.45048924  0.39991033  0.71279927    -0.20100
F964        F  0.30589287  0.88741035  0.73972924    -0.22800
C965        C  0.09778805  0.52145532  0.71822171    -0.05700
C966        C  0.09968458  0.97333418  0.72483166     0.00300
C967        C  0.11346364  0.93479163  0.71796188    -0.08300
C968        C  0.14786415  0.93948289  0.70918470    -0.05700
C969        C  0.16967397  0.98032023  0.70744833     0.00300
C970        C  0.13250583  0.52695797  0.70952166    -0.08200
C971        C  0.14002022  0.57223894  0.70358030     0.62200
H972        H  0.07605045  0.54961301  0.72048088     0.12900
H973        H  0.16014854  0.91051996  0.70410153     0.12900
C974        C  0.09363715  0.88852609  0.72001739     0.62400
F975        F  0.13375592  0.56849238  0.69110459    -0.22800
F976        F  0.18331410  0.58671038  0.70575627    -0.20100
F977        F  0.11053273  0.60456661  0.70808113    -0.19800
F978        F  0.04745683  0.89008989  0.71874352    -0.19800
F979        F  0.10436597  0.87380860  0.73160638    -0.20100
F980        F  0.11030181  0.85720424  0.71170746    -0.22800
C981        C  0.47216742  0.81918779  0.21898398    -0.05700
C982        C  0.05096484  0.83970104  0.20506964     0.00300
C983        C  0.08354959  0.84693023  0.21423233    -0.08300
C984        C  0.07709213  0.88248364  0.22251386    -0.05700
C985        C  0.03930556  0.91060739  0.22194938     0.00300
C986        C  0.47252528  0.85424143  0.22762938    -0.08200
C987        C  0.44895085  0.84798938  0.23989914     0.62200
H988        H  0.45503240  0.78828992  0.22120116     0.12900
H989        H  0.10096299  0.88706363  0.22984515     0.12900
C990        C  0.12507213  0.81784573  0.21590094     0.62400
F991        F  0.43055563  0.80562152  0.24102087    -0.22800
F992        F  0.41440400  0.87894309  0.24115618    -0.20100
F993        F  0.47923750  0.85367048  0.24929017    -0.19800
F994        F  0.13085060  0.78601703  0.20676810    -0.19800
F995        F  0.12216234  0.79626265  0.22704490    -0.20100
F996        F  0.16278543  0.84478723  0.21586205    -0.22800
C997        C  0.06797811  0.66201336  0.21414575    -0.05700
C998        C  0.02893045  0.67972082  0.20901349     0.00300
C999        C  0.47336806  0.62885928  0.20914965    -0.08300
C1000       C  0.47647104  0.59472144  0.21788472    -0.05700
C1001       C  0.02348723  0.61031872  0.22636353     0.00300
C1002       C  0.06628041  0.62719893  0.22275950    -0.08200
C1003       C  0.11001981  0.60961843  0.22801468     0.62200
H1004       H  0.09994863  0.67610364  0.21136159     0.12900
H1005       H  0.44924087  0.57100492  0.21880125     0.12900
C1006       C  0.43157309  0.63303725  0.20135114     0.62400
F1007       F  0.14678925  0.63389364  0.22397587    -0.22800
F1008       F  0.11659993  0.56546159  0.22444920    -0.20100
F1009       F  0.10863499  0.61257620  0.24064515    -0.19800
F1010       F  0.44284728  0.62651908  0.18918122    -0.19800
F1011       F  0.41262766  0.67522367  0.20284001    -0.20100
F1012       F  0.39938426  0.60165322  0.20447969    -0.22800
C1013       C  0.02031501  0.70906972  0.14833585    -0.05700
C1014       C  0.00631249  0.74825769  0.14231690     0.00300
C1015       C  0.46295496  0.77111594  0.15017379    -0.08300
C1016       C  0.47054119  0.77006098  0.16284124    -0.05700
C1017       C  0.02295055  0.74815209  0.16798964     0.00300
C1018       C  0.02872821  0.70797893  0.16099650    -0.08200
C1019       C  0.04437972  0.66397891  0.16658968     0.62200
H1020       H  0.02485862  0.67873005  0.14297871     0.12900
H1021       H  0.45741266  0.79693324  0.16855888     0.12900
C1022       C  0.43630191  0.81025858  0.14500261     0.62400
F1023       F  0.05272226  0.63125242  0.15780298    -0.22800
F1024       F  0.01155518  0.64764004  0.17439641    -0.20100
F1025       F  0.08385705  0.67057101  0.17291306    -0.19800
F1026       F  0.40164725  0.79444846  0.13786001    -0.19800
F1027       F  0.46428031  0.83720373  0.13808504    -0.20100
F1028       F  0.41741038  0.83690391  0.15413811    -0.22800
C1029       C  0.95234654  0.87974335  0.09059291    -0.05700
C1030       C  0.99075902  0.90691163  0.09085212     0.00300
C1031       C  0.02943974  0.89156182  0.09711069    -0.08300
C1032       C  0.02754928  0.85011760  0.10316291    -0.05700
C1033       C  0.98964954  0.82247653  0.10255767     0.00300
C1034       C  0.95124158  0.83742661  0.09622543    -0.08200
C1035       C  0.90885755  0.80946012  0.09576128     0.62200
H1036       H  0.92299538  0.89204145  0.08594463     0.12900
H1037       H  0.05649842  0.83869198  0.10825151     0.12900
C1038       C  0.07346054  0.91695713  0.09774114     0.62400
F1039       F  0.87402398  0.83191382  0.09009998    -0.22800
F1040       F  0.89493899  0.79895253  0.10751185    -0.20100
F1041       F  0.39404619  0.76574883  0.09173952    -0.19800
F1042       F  0.07609049  0.95198723  0.08956908    -0.19800
F1043       F  0.59407504  0.87047152  0.09342271    -0.20100
F1044       F  0.57270754  0.91115573  0.10987726    -0.22800
C1045       C  0.02692347  0.63804984  0.10197620    -0.05700
C1046       C  0.98525938  0.65759698  0.10489422     0.00300
C1047       C  0.43130553  0.62082251  0.10280565    -0.08300
C1048       C  0.43506250  0.58051784  0.09604306    -0.05700
C1049       C  0.98992991  0.57533130  0.09211874     0.00300
C1050       C  0.03001606  0.59642377  0.09591340    -0.08200
C1051       C  0.07559838  0.57408651  0.09416166     0.62200
H1052       H  0.05711007  0.65556792  0.10463906     0.12900
H1053       H  0.40566252  0.56010979  0.09450689     0.12900
C1054       C  0.38641746  0.63527785  0.10825137     0.62400
F1055       F  0.11000516  0.60005096  0.09876990    -0.22800
F1056       F  0.08436828  0.56640039  0.08193130    -0.20100
F1057       F  0.07601507  0.53366591  0.10022602    -0.19800
F1058       F  0.37400741  0.67642270  0.10355077    -0.19800
F1059       F  0.38991839  0.63890361  0.12082433    -0.20100
F1060       F  0.35281920  0.60478467  0.10569345    -0.22800
C1061       C  0.48220731  0.83265213  0.95205638    -0.05700
C1062       C  0.02097328  0.81066920  0.94918653     0.00300
C1063       C  0.05483461  0.82572657  0.94104796    -0.08300
C1064       C  0.04893736  0.86734951  0.93520709    -0.05700
C1065       C  0.01048824  0.89409766  0.93728160     0.00300
C1066       C  0.47403802  0.87332170  0.94598786    -0.08200
C1067       C  0.43254622  0.89954082  0.95013891     0.62200
H1068       H  0.45910291  0.82218687  0.95921759     0.12900
H1069       H  0.07458351  0.87955454  0.92900465     0.12900
C1070       C  0.09751463  0.79864655  0.93888037     0.62400
F1071       F  0.39580541  0.87129785  0.95038910    -0.22800
F1072       F  0.42183465  0.93502933  0.94267090    -0.20100
F1073       F  0.43943207  0.91586495  0.96183710    -0.19800
F1074       F  0.08742253  0.75911552  0.93289351    -0.22000
F1075       F  0.11730578  0.78885788  0.94995491    -0.20100
F1076       F  0.12846738  0.82172622  0.93181519    -0.22800
C1077       C  0.47989546  0.62012041  0.94879450    -0.05700
C1078       C  0.01847595  0.64519175  0.94932898     0.00300
C1079       C  0.05588657  0.61686656  0.94701685    -0.08300
C1080       C  0.04887628  0.57475861  0.94140621    -0.05700
C1081       C  0.00584618  0.56082831  0.93782506     0.00300
C1082       C  0.47335452  0.57786460  0.94337805    -0.08200
C1083       C  0.42597974  0.55934653  0.94391455     0.62200
H1084       H  0.45117409  0.63837630  0.95252205     0.12900
H1085       H  0.07723810  0.55299503  0.93932108     0.12900
C1086       C  0.10299949  0.63201922  0.95009910     0.62400
F1087       F  0.41170402  0.55807005  0.95599720    -0.22800
F1088       F  0.42250458  0.51655129  0.93917865    -0.20100
F1089       F  0.39754871  0.58732343  0.93751938    -0.19800
F1090       F  0.10574470  0.64149829  0.96246449    -0.19800
F1091       F  0.11312567  0.67023702  0.94353568    -0.20100
F1092       F  0.13486576  0.59950539  0.94723971    -0.22800
C1093       C  0.44665798  0.83944300  0.05238082    -0.05700
C1094       C  0.99997856  0.82488134  0.05250023     0.00300
C1095       C  0.03737533  0.84289348  0.05867028    -0.08300
C1096       C  0.03284475  0.88497458  0.06440281    -0.05700
C1097       C  0.99244127  0.90934129  0.06402761     0.00300
C1098       C  0.44294222  0.88109131  0.05847270    -0.08200
C1099       C  0.39947497  0.90789370  0.05768747     0.62200
H1100       H  0.41914428  0.82714883  0.04690863     0.12900
H1101       H  0.06076803  0.89918069  0.06934557     0.12900
C1102       C  0.08198627  0.81809487  0.05899772     0.62400
F1103       F  0.36589564  0.88356833  0.05207073    -0.22800
F1104       F  0.40654780  0.94640439  0.05099749    -0.20100
F1105       F  0.38423462  0.91968003  0.06924525    -0.19800
F1106       F  0.09712871  0.80994545  0.04719013    -0.19800
F1107       F  0.07671835  0.77776226  0.06499730    -0.20100
F1108       F  0.11455178  0.84254260  0.06501631    -0.22800
C1109       C  0.44472308  0.63461356  0.05700383    -0.05700
C1110       C  0.00006885  0.65957382  0.05270929     0.00300
C1111       C  0.03819299  0.63130523  0.05362481    -0.08300
C1112       C  0.03380037  0.59027761  0.05975903    -0.05700
C1113       C  0.99273122  0.57672779  0.06489605     0.00300
C1114       C  0.44025784  0.59263300  0.06267984    -0.08200
C1115       C  0.39302244  0.57814085  0.06617462     0.62200
H1116       H  0.41565890  0.65658822  0.05638379     0.12900
H1117       H  0.06252314  0.56807853  0.06050181     0.12900
C1118       C  0.08337036  0.64465461  0.04823655     0.62400
F1119       F  0.37440420  0.60863427  0.07437540    -0.22800
F1120       F  0.39129026  0.53591058  0.07128391    -0.20100
F1121       F  0.36702547  0.57744361  0.05575138    -0.19800
F1122       F  0.09668729  0.68505456  0.05326782    -0.19800
F1123       F  0.08010609  0.64906801  0.03569818    -0.20100
F1124       F  0.11637174  0.61297868  0.05053728    -0.22800
C1125       C  0.53558441  0.75786258  0.99464791    -0.05700
C1126       C  0.01663084  0.73027525  0.98812268     0.00300
C1127       C  0.98568731  0.70401619  0.99494033    -0.08300
C1128       C  0.98400149  0.70919950  0.00773276    -0.05700
C1129       C  0.01153334  0.73976563  0.01390027     0.00300
C1130       C  0.53104065  0.76226026  0.00743006    -0.08200
C1131       C  0.55946653  0.79653246  0.01412509     0.62200
H1132       H  0.55781802  0.78006709  0.98967093     0.12900
H1133       H  0.96067224  0.68939808  0.01309015     0.12900
C1134       C  0.95331150  0.67184948  0.98882970     0.62400
F1135       F  0.59060010  0.81649442  0.00642280    -0.22800
F1136       F  0.58284971  0.77582531  0.02341280    -0.20100
F1137       F  0.53226861  0.83005050  0.01897769    -0.19800
F1138       F  0.97681190  0.63640815  0.98358886    -0.19800
F1139       F  0.92934103  0.69413078  0.97992943    -0.20100
F1140       F  0.92270725  0.65416525  0.99709642    -0.22800
C1141       C  0.02237031  0.82619434  0.79381151    -0.05700
C1142       C  0.48745398  0.77855004  0.79175928     0.00300
C1143       C  0.45506910  0.78496508  0.78251206    -0.08300
C1144       C  0.46047279  0.82090198  0.77442919    -0.05700
C1145       C  0.99520154  0.86813275  0.77634816     0.00300
C1146       C  0.02766462  0.86210313  0.78563871    -0.08200
C1147       C  0.06716156  0.89363616  0.78714533     0.62200
H1148       H  0.04713769  0.82017206  0.80081291     0.12900
H1149       H  0.43613443  0.82609041  0.76727145     0.12900
C1150       C  0.41456640  0.75451754  0.78122549     0.62400
F1151       F  0.09154922  0.88411384  0.79754095    -0.22800
F1152       F  0.05174584  0.93739044  0.78812997    -0.20100
F1153       F  0.09596528  0.88970272  0.77718806    -0.19800
F1154       F  0.39257769  0.75091910  0.79238131    -0.19800
F1155       F  0.42821285  0.71248873  0.77723642    -0.20100
F1156       F  0.38410623  0.77092107  0.77284400    -0.22800
C1157       C  0.45351880  0.56157208  0.78302780    -0.05700
C1158       C  0.49494646  0.54948590  0.77756700     0.00300
C1159       C  0.03501723  0.58841946  0.78190168    -0.08300
C1160       C  0.03203723  0.62254023  0.79079555    -0.05700
C1161       C  0.49001982  0.61715710  0.79559968     0.00300
C1162       C  0.45042014  0.59530813  0.79200242    -0.08200
C1163       C  0.40510588  0.60858778  0.79744849     0.62200
H1164       H  0.42313149  0.54560090  0.77990362     0.12900
H1165       H  0.06146459  0.64177447  0.79319068     0.12900
C1166       C  0.08085027  0.57711981  0.77638063     0.62400
F1167       F  0.37065486  0.58257646  0.79288110    -0.22800
F1168       F  0.89475929  0.66558784  0.79694338    -0.20100
F1169       F  0.40605531  0.60327307  0.80999910    -0.19800
F1170       F  0.08130308  0.58694373  0.76403246    -0.19800
F1171       F  0.58751980  0.50970028  0.77835054    -0.20100
F1172       F  0.11493577  0.60140091  0.78179312    -0.22800
C1173       C  0.01174715  0.69118837  0.83980629    -0.05700
C1174       C  0.48825600  0.71034765  0.83301406     0.00300
C1175       C  0.46427234  0.74360291  0.83979976    -0.08300
C1176       C  0.46901613  0.74508670  0.85263300    -0.05700
C1177       C  0.49473431  0.71313600  0.85895378     0.00300
C1178       C  0.01434433  0.68906077  0.85259813    -0.08200
C1179       C  0.04011291  0.65034539  0.85830851     0.62200
H1180       H  0.02791460  0.66527004  0.83432878     0.12900
H1181       H  0.45175309  0.77096993  0.85788108     0.12900
C1182       C  0.43216513  0.77610716  0.83368006     0.62400
F1183       F  0.06365851  0.62533217  0.84963715    -0.22800
F1184       F  0.01041853  0.62182828  0.86414030    -0.20100
F1185       F  0.07092477  0.66652758  0.86660891    -0.19800
F1186       F  0.40433016  0.75309868  0.82577703    -0.19800
F1187       F  0.45619008  0.80792120  0.82724277    -0.20100
F1188       F  0.40503423  0.79828746  0.84214131    -0.22800
C1189       C  0.04017917  0.87787812  0.90546965    -0.05700
C1190       C  0.99907575  0.89468879  0.91008708     0.00300
C1191       C  0.45668612  0.86143778  0.90859743    -0.08300
C1192       C  0.45994336  0.82020960  0.90230181    -0.05700
C1193       C  0.00321372  0.81113745  0.89778399     0.00300
C1194       C  0.04294471  0.83619744  0.89933077    -0.08200
C1195       C  0.08791418  0.81834138  0.89474121     0.62200
H1196       H  0.07028875  0.89733265  0.90695057     0.12900
H1197       H  0.43057880  0.79895810  0.90168869     0.12900
C1198       C  0.41115945  0.87380836  0.91407984     0.62400
F1199       F  0.12236989  0.84828843  0.89690549    -0.22800
F1200       F  0.08615392  0.81046678  0.88227653    -0.20100
F1201       F  0.09789306  0.77862640  0.90061706    -0.19800
F1202       F  0.40920430  0.91695614  0.91870163    -0.19800
F1203       F  0.40099480  0.84428603  0.92340137    -0.20100
F1204       F  0.37866015  0.87033427  0.90517219    -0.22800
C1205       C  0.03240883  0.58978246  0.91162490    -0.05700
C1206       C  0.99460763  0.56198810  0.91078483     0.00300
C1207       C  0.46230083  0.57283070  0.90487583    -0.08300
C1208       C  0.46401721  0.61469902  0.89901786    -0.05700
C1209       C  0.99671216  0.64629243  0.89914323     0.00300
C1210       C  0.03380984  0.63218247  0.90613969    -0.08200
C1211       C  0.07519595  0.66118613  0.90754316     0.62200
H1212       H  0.06111942  0.57782236  0.91666420     0.12900
H1213       H  0.43507250  0.62714642  0.89413561     0.12900
C1214       C  0.41934229  0.54563631  0.90422606     0.62400
F1215       F  0.10917878  0.63912317  0.91367927    -0.22800
F1216       F  0.06407676  0.69938614  0.91413650    -0.20100
F1217       F  0.09163208  0.67315424  0.89614510    -0.19800
F1218       F  0.38455049  0.56984626  0.89908598    -0.19800
F1219       F  0.40580503  0.53305036  0.91579967    -0.20100
F1220       F  0.42631347  0.50776659  0.89711043    -0.22800
C1221       C  0.49353209  0.26265776  0.89140272     0.80300
N1222       N  0.49305248  0.22386035  0.89790183    -0.78000
C1223       C  0.49395954  0.18357409  0.89197792     0.82800
N1224       N  0.98784319  0.18745270  0.87938166    -0.77900
C1225       C  0.98660409  0.22597579  0.87283023     0.82900
N1226       N  0.98616420  0.26602478  0.87883574    -0.79600
C1227       C  0.98308642  0.22670176  0.81969243     0.80300
N1228       N  0.98587821  0.18614784  0.81389156    -0.78000
C1229       C  0.98683311  0.18390442  0.80149073     0.82800
N1230       N  0.98524342  0.22193877  0.79486364    -0.77900
C1231       C  0.98233004  0.26232019  0.80047336     0.82900
N1232       N  0.98192813  0.26484301  0.81289007    -0.79600
C1233       C  0.49382827  0.18973949  0.04653630     0.80300
N1234       N  0.49486979  0.18992068  0.03410417    -0.78000
C1235       C  0.49557042  0.22925164  0.02786931     0.82800
N1236       N  0.49410536  0.26838253  0.03423241    -0.77900
C1237       C  0.49339009  0.26868031  0.04663486     0.82900
N1238       N  0.49279864  0.22924969  0.05280902    -0.79600
C1239       C  0.50644621  0.26034330  0.95593083     0.80300
N1240       N  0.50707489  0.22053479  0.94979483    -0.78000
C1241       C  0.50581412  0.18131592  0.95605077     0.82800
N1242       N  0.50273885  0.18199450  0.96843749    -0.77900
C1243       C  0.50082812  0.22143490  0.97468190     0.82900
N1244       N  0.50284504  0.26053157  0.96834204    -0.79600
C1245       C  0.48306383  0.27092179  0.10913658     0.80300
N1246       N  0.47872510  0.22987048  0.10381317    -0.78000
C1247       C  0.47948531  0.19221245  0.11078262     0.82800
N1248       N  0.48533709  0.19569522  0.12306580    -0.77900
C1249       C  0.48953524  0.23670442  0.12843201     0.82900
N1250       N  0.48904098  0.27389744  0.12138404    -0.79600
C1251       C  0.51330248  0.24469163  0.18087506     0.80300
N1252       N  0.51573723  0.20599799  0.18736568    -0.78000
C1253       C  0.51556575  0.20729649  0.19976059     0.82800
N1254       N  0.51255980  0.24699533  0.20568452    -0.77900
C1255       C  0.50973138  0.28565675  0.19937585     0.82900
N1256       N  0.50987246  0.28469736  0.18695172    -0.79600
C1257       C  0.48023175  0.02164030  0.08543159     0.02400
C1258       C  0.47991644  0.02165477  0.07245629     0.02400
C1259       C  0.48020084  0.98060571  0.06608064    -0.18100
C1260       C  0.48413581  0.44114965  0.07093477     0.02400
C1261       C  0.48119745  0.44110722  0.08387878     0.02400
C1262       C  0.47847844  0.98060774  0.09167545    -0.18100
H1263       H  0.47812467  0.98050088  0.10158772     0.04400
H1264       H  0.48187164  0.98062913  0.05617790     0.04400
C1265       C  0.49712427  0.01204225  0.93019560     0.02400
C1266       C  0.49356150  0.01280276  0.91726151     0.02400
C1267       C  0.49493469  0.97199460  0.91074563    -0.18100
C1268       C  0.49751087  0.43193888  0.91765350     0.02400
C1269       C  0.50171165  0.43105859  0.93057731     0.02400
C1270       C  0.50199087  0.97085676  0.93621398    -0.18100
H1271       H  0.50590121  0.97058085  0.94606869     0.04400
H1272       H  0.49357970  0.97234776  0.90083568     0.04400
In1273     In  0.99926249  0.97080814  0.75124974     1.36900
C1274       C  0.49479951  0.38798036  0.76515869     0.77700
O1275       O  0.94978653  0.00265669  0.73856104    -0.60700
O1276       O  0.94152102  0.44052143  0.73688906    -0.51600
C1277       C  0.99965984  0.03614001  0.76785232     0.70400
O1278       O  0.53308891  0.00049863  0.76436771    -0.46500
C1279       C  0.55804514  0.45790132  0.73305262     0.75100
O1280       O  0.95290341  0.42445445  0.76192382    -0.58400
O1281       O  0.54085552  0.49273632  0.73778293    -0.48500
O1282       O  0.52944622  0.40934698  0.76207377    -0.54800
C1283       C  0.92311196  0.47639374  0.73346488     0.85300
O1284       O  0.96422472  0.02296110  0.76273456    -0.56700
O1285       O  0.55279003  0.92246818  0.73935500    -0.60000
In1286     In  0.51961353  0.99605833  0.24990275     1.36900
C1287       C  0.52294340  0.06168876  0.23375847     0.77700
O1288       O  0.95849167  0.46697695  0.26297304    -0.60700
O1289       O  0.97391892  0.03905319  0.26237473    -0.51600
C1290       C  0.50314269  0.42634646  0.23524893     0.70400
O1291       O  0.53909820  0.44572780  0.23819375    -0.46500
C1292       C  0.58829621  0.98844899  0.26527172     0.75100
O1293       O  0.48670661  0.04861764  0.23863479    -0.58400
O1294       O  0.56918967  0.95501748  0.26058495    -0.48500
O1295       O  0.55753795  0.04128715  0.23736186    -0.54800
C1296       C  0.95525530  0.00351476  0.26587865     0.85300
O1297       O  0.46923929  0.43900997  0.24136676    -0.56700
O1298       O  0.55400338  0.52021757  0.26515496    -0.60000
C1299       C  0.72210242  0.01511829  0.39098466     0.80300
N1300       N  0.76077456  0.01592419  0.39751940    -0.78000
C1301       C  0.80130993  0.01470094  0.39165470     0.82800
N1302       N  0.80294699  0.01255082  0.37924202    -0.77900
C1303       C  0.76466911  0.01271027  0.37258404     0.82900
N1304       N  0.72422787  0.01332084  0.37854592    -0.79600
C1305       C  0.76828621  0.99425620  0.31936986     0.80300
N1306       N  0.72943909  0.99106751  0.31293061    -0.78000
C1307       C  0.73056898  0.98817430  0.30053653     0.82800
N1308       N  0.77028629  0.98952607  0.29453990    -0.77900
C1309       C  0.80919202  0.99359021  0.30067205     0.82900
N1310       N  0.80837950  0.99621064  0.31313699    -0.79600
C1311       C  0.71600877  0.56443594  0.45625780     0.80300
N1312       N  0.75602649  0.56550413  0.45013639    -0.78000
C1313       C  0.79523998  0.56627479  0.45640972     0.82800
N1314       N  0.79435375  0.56576052  0.46882586    -0.77900
C1315       C  0.75452125  0.56452386  0.47500178     0.82900
N1316       N  0.71549049  0.56454812  0.46867945    -0.79600
C1317       C  0.71283860  0.57545338  0.54635603     0.80300
N1318       N  0.75188486  0.57747897  0.55264882    -0.78000
C1319       C  0.79183575  0.57807090  0.54655044     0.82800
N1320       N  0.79268887  0.57642233  0.53415587    -0.77900
C1321       C  0.75384659  0.57518227  0.52778828     0.82900
N1322       N  0.71388021  0.57439212  0.53392555    -0.79600
C1323       C  0.74125201  0.49670260  0.68011621     0.80300
N1324       N  0.70186293  0.48984601  0.68624573    -0.78000
C1325       C  0.70194376  0.48039909  0.69836851     0.82800
N1326       N  0.74124700  0.47843049  0.70440724    -0.77900
C1327       C  0.78050922  0.48636943  0.69853186     0.82900
N1328       N  0.78067837  0.49546440  0.68637349    -0.79600
C1329       C  0.78899478  0.55717236  0.61031366     0.80300
N1330       N  0.74966482  0.56028231  0.60422637    -0.78000
C1331       C  0.71007473  0.55367433  0.61019064     0.82800
N1332       N  0.71001889  0.54332535  0.62226758    -0.77900
C1333       C  0.74926398  0.54056624  0.62848127     0.82900
N1334       N  0.78869377  0.54723535  0.62240742    -0.79600
C1335       C  0.54195563  0.57318207  0.57208389     0.02400
C1336       C  0.54118656  0.56820500  0.58496730     0.02400
C1337       C  0.49988516  0.56827412  0.59125527    -0.18100
C1338       C  0.95911114  0.57914166  0.58517009     0.02400
C1339       C  0.96009257  0.58050597  0.57222672     0.02400
C1340       C  0.50120962  0.57361599  0.56576159    -0.18100
H1341       H  0.50166191  0.57595761  0.55588747     0.04400
H1342       H  0.49940340  0.56654976  0.60114474     0.04400
C1343       C  0.54674796  0.57135512  0.41729282     0.02400
C1344       C  0.54706666  0.56848353  0.43024754     0.02400
C1345       C  0.50613986  0.56342594  0.43664074    -0.18100
C1346       C  0.96478406  0.56476812  0.42999062     0.02400
C1347       C  0.96433786  0.56494779  0.41701010     0.02400
C1348       C  0.50538200  0.57073930  0.41118914    -0.18100
H1349       H  0.50506095  0.57275754  0.40128651     0.04400
H1350       H  0.50635363  0.56111730  0.44653806     0.04400
C1351       C  0.85572304  0.60299439  0.60527138    -0.05700
C1352       C  0.83197331  0.56286715  0.60374325     0.00300
C1353       C  0.85006685  0.52821621  0.59632149    -0.08300
C1354       C  0.89224446  0.53455025  0.59077580    -0.05700
C1355       C  0.91594146  0.57483943  0.59205593     0.00300
C1356       C  0.89760539  0.60985776  0.59943318    -0.08200
C1357       C  0.93209985  0.08784231  0.60261848     0.62200
H1358       H  0.84112616  0.62886997  0.61109164     0.12900
H1359       H  0.90694863  0.50801092  0.58529699     0.12900
C1360       C  0.82474202  0.48477274  0.59429288     0.62400
F1361       F  0.96108919  0.64707416  0.60759737    -0.22800
F1362       F  0.89596951  0.68494301  0.60761080    -0.20100
F1363       F  0.94641558  0.10691570  0.59177095    -0.19800
F1364       F  0.78512744  0.49367103  0.58824446    -0.19800
F1365       F  0.80941361  0.90749006  0.60261576    -0.20100
F1366       F  0.84942054  0.45433666  0.58732026    -0.22800
C1367       C  0.63775319  0.52150771  0.60373602    -0.05700
C1368       C  0.66719010  0.55809752  0.60366646     0.00300
C1369       C  0.65449076  0.59849065  0.59787190    -0.08300
C1370       C  0.61245294  0.60069735  0.59220187    -0.05700
C1371       C  0.58334856  0.56390657  0.59201144     0.00300
C1372       C  0.59586222  0.52347911  0.59789616    -0.08200
C1373       C  0.56559373  0.48247490  0.59794308     0.62200
H1374       H  0.64805149  0.49120681  0.60837944     0.12900
H1375       H  0.60201769  0.63122921  0.58775343     0.12900
C1376       C  0.68452347  0.63953566  0.59798135     0.62400
F1377       F  0.58719512  0.44522177  0.60264560    -0.22800
F1378       F  0.55242178  0.47204363  0.58617935    -0.20100
F1379       F  0.53266722  0.93307145  0.60376189    -0.19800
F1380       F  0.72329207  0.63102408  0.59127034    -0.19800
F1381       F  0.69520762  0.09733168  0.61118430    -0.20100
F1382       F  0.66461795  0.12350953  0.59398844    -0.22800
C1383       C  0.78089418  0.01109309  0.66271483    -0.05700
C1384       C  0.74157633  0.50753600  0.66685134     0.00300
C1385       C  0.71311941  0.48628277  0.65823607    -0.08300
C1386       C  0.71751447  0.49764917  0.64580178    -0.05700
C1387       C  0.74855050  0.52972733  0.64172309     0.00300
C1388       C  0.78250874  0.01790539  0.64999087    -0.08200
C1389       C  0.81195793  0.05497146  0.64484639     0.62200
H1390       H  0.80115144  0.03155350  0.66871688     0.12900
H1391       H  0.69635891  0.48154917  0.63909475     0.12900
C1392       C  0.67850284  0.45147612  0.66197823     0.62400
F1393       F  0.83106628  0.08054726  0.65401607    -0.22800
F1394       F  0.78645758  0.08326543  0.63767906    -0.20100
F1395       F  0.84660075  0.03670903  0.63789232    -0.19800
F1396       F  0.64421856  0.47192819  0.66862135    -0.19800
F1397       F  0.69846134  0.41852702  0.66897157    -0.20100
F1398       F  0.65943182  0.43071928  0.65194321    -0.22800
C1399       C  0.86254736  0.54172164  0.55264813    -0.05700
C1400       C  0.83436551  0.57948760  0.55326827     0.00300
C1401       C  0.84871905  0.05452395  0.56140110    -0.08300
C1402       C  0.89007164  0.61769660  0.56545673    -0.05700
C1403       C  0.91803633  0.57965652  0.56505671     0.00300
C1404       C  0.90475453  0.54121505  0.55831889    -0.08200
C1405       C  0.93531045  0.50042953  0.55672557     0.62200
H1406       H  0.85144970  0.51283800  0.54745652     0.12900
H1407       H  0.90015995  0.08251082  0.57294787     0.12900
C1408       C  0.81628610  0.09342782  0.56343664     0.62400
F1409       F  0.97115754  0.51115917  0.54918883    -0.22800
F1410       F  0.92272205  0.90883254  0.54939948    -0.20100
F1411       F  0.95157644  0.48630138  0.56785443    -0.19800
F1412       F  0.80358904  0.11095001  0.55229560    -0.19800
F1413       F  0.84163974  0.69622045  0.56535356    -0.20100
F1414       F  0.77964617  0.65395434  0.56526376    -0.22800
C1415       C  0.64196324  0.61258375  0.55279917    -0.05700
C1416       C  0.66943983  0.57427045  0.55297432     0.00300
C1417       C  0.65496592  0.53558720  0.55926043    -0.08300
C1418       C  0.61251193  0.53622893  0.56500990    -0.05700
C1419       C  0.58507432  0.57469663  0.56503884     0.00300
C1420       C  0.60004072  0.61384775  0.55891523    -0.08200
C1421       C  0.57256077  0.65701382  0.55899321     0.62200
H1422       H  0.65394279  0.64173431  0.54790764     0.12900
H1423       H  0.59692609  0.94905007  0.56781903     0.12900
C1424       C  0.67731814  0.92945068  0.55678723     0.62400
F1425       F  0.59620083  0.69222693  0.55386959    -0.22800
F1426       F  0.57065183  0.11495565  0.57117739    -0.20100
F1427       F  0.53380850  0.65125580  0.55233799    -0.19800
F1428       F  0.71870057  0.93176409  0.56238408    -0.19800
F1429       F  0.69523784  0.47943033  0.54813445    -0.20100
F1430       F  0.66286521  0.45908650  0.56583563    -0.22800
C1431       C  0.77696450  0.60098003  0.49426819    -0.05700
C1432       C  0.75385495  0.56595870  0.48852154     0.00300
C1433       C  0.73151762  0.53337293  0.49572062    -0.08300
C1434       C  0.73210478  0.53791422  0.50853900    -0.05700
C1435       C  0.75502307  0.57308059  0.51427862     0.00300
C1436       C  0.77794229  0.60526743  0.50708107    -0.08200
C1437       C  0.80224606  0.64466744  0.51283817     0.62200
H1438       H  0.81729466  0.03210238  0.48807036     0.12900
H1439       H  0.71509965  0.51357197  0.51423576     0.12900
C1440       C  0.70882152  0.49302221  0.48996520     0.62400
F1441       F  0.81625517  0.67533514  0.50415512    -0.22800
F1442       F  0.83982934  0.62955028  0.51893036    -0.20100
F1443       F  0.81145660  0.08589722  0.51915760    -0.19800
F1444       F  0.67220570  0.50672955  0.48324688    -0.19800
F1445       F  0.66514546  0.91857174  0.49972826    -0.20100
F1446       F  0.70554163  0.91046622  0.48250454    -0.22800
C1447       C  0.90126419  0.60475073  0.44001632    -0.05700
C1448       C  0.92255338  0.56355057  0.43740074     0.00300
C1449       C  0.90305228  0.52334984  0.44183491    -0.08300
C1450       C  0.86076393  0.52564899  0.44769509    -0.05700
C1451       C  0.83877080  0.56664914  0.44981606     0.00300
C1452       C  0.85949424  0.60699840  0.44616231    -0.08200
C1453       C  0.83768762  0.65208158  0.44892694     0.62200
H1454       H  0.91760133  0.63527825  0.43707848     0.12900
H1455       H  0.84509327  0.49505842  0.45089349     0.12900
C1456       C  0.92523318  0.47747650  0.44103447     0.62400
F1457       F  0.85597409  0.11013329  0.44162228    -0.22800
F1458       F  0.82254174  0.08203293  0.45833397    -0.20100
F1459       F  0.79555855  0.65397268  0.44372571    -0.19800
F1460       F  0.97890476  0.90849903  0.43690969    -0.19800
F1461       F  0.89984731  0.44979101  0.43366793    -0.20100
F1462       F  0.92700819  0.45917962  0.45262510    -0.22800
C1463       C  0.64219568  0.59918891  0.45202526    -0.05700
C1464       C  0.67301601  0.56449567  0.44955575     0.00300
C1465       C  0.66791380  0.96153625  0.43916984    -0.08300
C1466       C  0.62570155  0.96503544  0.43358840    -0.05700
C1467       C  0.58980731  0.56855504  0.43723477     0.00300
C1468       C  0.60086214  0.60235077  0.44594481    -0.08200
C1469       C  0.57159791  0.64288437  0.44916345     0.62200
H1470       H  0.65103068  0.62488539  0.45863804     0.12900
H1471       H  0.61695890  0.94188118  0.42636127     0.12900
C1472       C  0.70153760  0.92694457  0.43441043     0.62400
F1473       F  0.55768278  0.63969260  0.46123274    -0.22800
F1474       F  0.53971373  0.07565779  0.44361402    -0.20100
F1475       F  0.59659935  0.68157855  0.44783432    -0.19800
F1476       F  0.71725704  0.90118489  0.44395618    -0.19800
F1477       F  0.73149106  0.50261804  0.43361031    -0.20100
F1478       F  0.67203443  0.45754018  0.43180993    -0.22800
C1479       C  0.73495889  0.48599942  0.35512909    -0.05700
C1480       C  0.76674127  0.00905513  0.35895814     0.00300
C1481       C  0.79746618  0.03361340  0.35158455    -0.08300
C1482       C  0.79682898  0.02758642  0.33875693    -0.05700
C1483       C  0.76674581  0.99808436  0.33303741     0.00300
C1484       C  0.73270042  0.47574097  0.34254946    -0.08200
C1485       C  0.70691920  0.43462658  0.33835596     0.62200
H1486       H  0.71718902  0.46545209  0.36170923     0.12900
H1487       H  0.81994611  0.04624940  0.33304241     0.12900
C1488       C  0.83026390  0.06677808  0.35711363     0.62400
F1489       F  0.69432693  0.40786471  0.34809633    -0.22800
F1490       F  0.73345172  0.40890616  0.33052472    -0.20100
F1491       F  0.66833686  0.44770118  0.33237384    -0.19800
F1492       F  0.86350142  0.04384809  0.36327953    -0.19800
F1493       F  0.80791444  0.09545147  0.36513636    -0.20100
F1494       F  0.85088304  0.09276117  0.34825294    -0.22800
C1495       C  0.90294651  0.04420293  0.41090776    -0.05700
C1496       C  0.92146635  0.56026574  0.41006191     0.00300
C1497       C  0.91125736  0.52153040  0.40301032    -0.08300
C1498       C  0.86940189  0.51930902  0.39710537    -0.05700
C1499       C  0.84364501  0.01191918  0.39861075     0.00300
C1500       C  0.86052721  0.04850373  0.40542428    -0.08200
C1501       C  0.83407151  0.09192389  0.40677343     0.62200
H1502       H  0.91739642  0.07248809  0.41566402     0.12900
H1503       H  0.86162386  0.49057161  0.39141281     0.12900
C1504       C  0.94430133  0.48281111  0.40146158     0.62400
F1505       F  0.85734653  0.12387809  0.41337697    -0.22800
F1506       F  0.79399754  0.08380343  0.41285357    -0.20100
F1507       F  0.79672348  0.64465356  0.39689572    -0.19800
F1508       F  0.91323783  0.89175198  0.39572423    -0.19800
F1509       F  0.96201521  0.47085186  0.41259507    -0.20100
F1510       F  0.97882862  0.49516475  0.39366358    -0.22800
C1511       C  0.66254495  0.05296125  0.40342641    -0.05700
C1512       C  0.67798743  0.01407004  0.39740141     0.00300
C1513       C  0.63527239  0.52326404  0.39573876    -0.08300
C1514       C  0.59555476  0.53057969  0.40257668    -0.05700
C1515       C  0.58894402  0.56922593  0.40979465     0.00300
C1516       C  0.62091414  0.05424833  0.40970896    -0.08200
C1517       C  0.60677219  0.09884405  0.41532347     0.62200
H1518       H  0.68304703  0.08291072  0.40309846     0.12900
H1519       H  0.56898414  0.50591699  0.40235647     0.12900
C1520       C  0.63910480  0.48198676  0.38757230     0.62400
F1521       F  0.63839155  0.11210527  0.42378040    -0.22800
F1522       F  0.56533367  0.09755279  0.42107447    -0.20100
F1523       F  0.62644780  0.68092900  0.40702235    -0.19800
F1524       F  0.71083848  0.92142943  0.39562757    -0.19800
F1525       F  0.63904144  0.49493652  0.37544820    -0.20100
F1526       F  0.60350484  0.45293958  0.38934006    -0.22800
C1527       C  0.85033560  0.03260294  0.28442854    -0.05700
C1528       C  0.85063636  0.99865577  0.29327957     0.00300
C1529       C  0.84276003  0.45248023  0.28564453    -0.08300
C1530       C  0.87805408  0.45824151  0.27719915    -0.05700
C1531       C  0.91899732  0.00322718  0.27522124     0.00300
C1532       C  0.88374407  0.03537936  0.27530118    -0.08200
C1533       C  0.87996973  0.07106555  0.26546520     0.62200
H1534       H  0.82261832  0.05634018  0.28452308     0.12900
H1535       H  0.88532629  0.43208072  0.27053680     0.12900
C1536       C  0.81626591  0.40905962  0.28549428     0.62400
F1537       F  0.83940530  0.09396028  0.26617781    -0.22800
F1538       F  0.88300399  0.05137290  0.25398555    -0.20100
F1539       F  0.91404712  0.10200205  0.26676505    -0.19800
F1540       F  0.77477138  0.41633689  0.28028600    -0.19800
F1541       F  0.81042940  0.39338658  0.29728626    -0.20100
F1542       F  0.83819485  0.37590105  0.27876735    -0.22800
C1543       C  0.63214466  0.02490737  0.28159241    -0.05700
C1544       C  0.62352733  0.98562916  0.27480444     0.00300
C1545       C  0.64850385  0.94597384  0.27733389    -0.08300
C1546       C  0.68096924  0.94741420  0.28660694    -0.05700
C1547       C  0.68957654  0.98681899  0.29319235     0.00300
C1548       C  0.66531905  0.02636974  0.29062324    -0.08200
C1549       C  0.67585787  0.07026318  0.29708627     0.62200
H1550       H  0.61302509  0.05500641  0.27965780     0.12900
H1551       H  0.70131576  0.91806941  0.28851921     0.12900
C1552       C  0.64272067  0.90287872  0.27004048     0.62400
F1553       F  0.60695552  0.58703619  0.30248217    -0.22800
F1554       F  0.68161522  0.57734134  0.30294223    -0.20100
F1555       F  0.66751949  0.06595770  0.30948601    -0.19800
F1556       F  0.63310897  0.41465023  0.25909441    -0.19800
F1557       F  0.60038658  0.88552307  0.27218159    -0.20100
F1558       F  0.67391963  0.87045907  0.27322444    -0.22800
C1559       C  0.90218220  0.99261834  0.71564068    -0.05700
C1560       C  0.88938482  0.47871984  0.72352612     0.00300
C1561       C  0.88336468  0.44409791  0.71464945    -0.08300
C1562       C  0.84873960  0.44880798  0.70604745    -0.05700
C1563       C  0.82175034  0.48730609  0.70577495     0.00300
C1564       C  0.83036868  0.52341150  0.71379417    -0.08200
C1565       C  0.87384566  0.02604422  0.69589799     0.62200
H1566       H  0.92952409  0.01642846  0.71541125     0.12900
H1567       H  0.84141686  0.42180623  0.69971639     0.12900
C1568       C  0.91323750  0.40262773  0.71402772     0.62400
F1569       F  0.82035852  0.59949076  0.72083947    -0.22800
F1570       F  0.75957415  0.56043514  0.71550515    -0.20100
F1571       F  0.87919451  0.00288350  0.68497565    -0.19800
F1572       F  0.90550355  0.37603898  0.72414408    -0.19800
F1573       F  0.89806012  0.86623770  0.73550941    -0.20100
F1574       F  0.90506382  0.37701257  0.70368605    -0.22800
C1575       C  0.61881163  0.00239031  0.72167107    -0.05700
C1576       C  0.59262889  0.46037893  0.72321106     0.00300
C1577       C  0.62097406  0.42384166  0.71971808    -0.08300
C1578       C  0.65473039  0.43130374  0.71088228    -0.05700
C1579       C  0.66023973  0.47316834  0.70533975     0.00300
C1580       C  0.65378253  0.00741484  0.71307086    -0.08200
C1581       C  0.67274589  0.05348597  0.71031836     0.62200
H1582       H  0.60514710  0.03187533  0.72621901     0.12900
H1583       H  0.67827874  0.40477610  0.70846227     0.12900
C1584       C  0.61702822  0.37765754  0.72543553     0.62400
F1585       F  0.64963349  0.08715776  0.71652833    -0.22800
F1586       F  0.66987822  0.06180440  0.69791709    -0.20100
F1587       F  0.71733078  0.05518412  0.71374401    -0.19800
F1588       F  0.57515343  0.35991954  0.72304002    -0.19800
F1589       F  0.62312825  0.38077434  0.73793921    -0.20100
F1590       F  0.64888279  0.34793202  0.72078663    -0.22800
C1591       C  0.94408087  0.34672627  0.21504406    -0.05700
C1592       C  0.50524405  0.32747635  0.20640059     0.00300
C1593       C  0.54194633  0.35642912  0.20804183    -0.08300
C1594       C  0.53966448  0.38832669  0.21754363    -0.05700
C1595       C  0.50141005  0.39264532  0.22518754     0.00300
C1596       C  0.94525322  0.38152281  0.22375159    -0.08200
C1597       C  0.90718560  0.38632114  0.23305609     0.62200
H1598       H  0.91673583  0.32289862  0.21517844     0.12900
H1599       H  0.56814331  0.40999084  0.21909839     0.12900
C1600       C  0.58341783  0.35284592  0.19989162     0.62400
F1601       F  0.87689032  0.35136440  0.23226105    -0.22800
F1602       F  0.88408641  0.42588709  0.23098510    -0.20100
F1603       F  0.92403254  0.38670641  0.24480561    -0.19800
F1604       F  0.57138852  0.36035606  0.18788713    -0.19800
F1605       F  0.60231791  0.31050798  0.20079287    -0.20100
F1606       F  0.61569020  0.38400003  0.20303997    -0.22800
C1607       C  0.55864827  0.15822163  0.21314625    -0.05700
C1608       C  0.51841645  0.16642891  0.20703416     0.00300
C1609       C  0.95497150  0.16891215  0.21800209    -0.08300
C1610       C  0.96369659  0.13300956  0.22587461    -0.05700
C1611       C  0.52380613  0.09736572  0.22439509     0.00300
C1612       C  0.56212311  0.12431565  0.22195942    -0.08200
C1613       C  0.60571167  0.11931821  0.22896444     0.62200
H1614       H  0.58694683  0.17989308  0.21123587     0.12900
H1615       H  0.93954841  0.12465072  0.23297602     0.12900
C1616       C  0.91189500  0.19602310  0.21960567     0.62400
F1617       F  0.63653203  0.15210758  0.22587277    -0.22800
F1618       F  0.62524257  0.07811886  0.22637292    -0.20100
F1619       F  0.59712608  0.12297115  0.24139443    -0.19800
F1620       F  0.89061372  0.20033471  0.20848238    -0.19800
F1621       F  0.92170948  0.23810896  0.22418715    -0.20100
F1622       F  0.88223962  0.17582403  0.22768113    -0.22800
C1623       C  0.52790349  0.21223957  0.14721724    -0.05700
C1624       C  0.49627181  0.24075035  0.14179361     0.00300
C1625       C  0.95808556  0.28343032  0.14879020    -0.08300
C1626       C  0.96053262  0.28336362  0.16164577    -0.05700
C1627       C  0.51014459  0.24317719  0.16734607     0.00300
C1628       C  0.53575135  0.21312602  0.15989045    -0.08200
C1629       C  0.57163742  0.18247164  0.16512157     0.62200
H1630       H  0.54652471  0.18902604  0.14139838     0.12900
H1631       H  0.94319766  0.30929535  0.16685097     0.12900
C1632       C  0.92964968  0.31919030  0.14262659     0.62400
F1633       F  0.59912763  0.16446763  0.15602602    -0.22800
F1634       F  0.55154205  0.14736089  0.17126328    -0.20100
F1635       F  0.59865798  0.20616926  0.17307501    -0.19800
F1636       F  0.89958268  0.29917049  0.13474722    -0.19800
F1637       F  0.95692825  0.34836847  0.13620637    -0.20100
F1638       F  0.90501154  0.34441197  0.15102454    -0.22800
C1639       C  0.44655546  0.36782991  0.08896633    -0.05700
C1640       C  0.48185611  0.39817074  0.09080033     0.00300
C1641       C  0.51861611  0.38544008  0.09819506    -0.08300
C1642       C  0.51807608  0.34294322  0.10370994    -0.05700
C1643       C  0.48280308  0.31265909  0.10186998     0.00300
C1644       C  0.44656616  0.32491958  0.09427098    -0.08200
C1645       C  0.40751340  0.29347770  0.09204636     0.62200
H1646       H  0.41906031  0.37800435  0.08319727     0.12900
H1647       H  0.54518720  0.33310942  0.10968091     0.12900
C1648       C  0.55816676  0.41639404  0.10040547     0.62400
F1649       F  0.37431058  0.31341407  0.08512259    -0.22800
F1650       F  0.38852492  0.28097961  0.10310528    -0.20100
F1651       F  0.92746297  0.26878242  0.08447282    -0.19800
F1652       F  0.57387897  0.43381956  0.08948484    -0.19800
F1653       F  0.09950503  0.39649168  0.10660133    -0.20100
F1654       F  0.05365315  0.45533355  0.10959182    -0.22800
C1655       C  0.51946311  0.12983664  0.10057244    -0.05700
C1656       C  0.47862095  0.14763361  0.10487887     0.00300
C1657       C  0.94174318  0.13552538  0.10110591    -0.08300
C1658       C  0.94491288  0.09406009  0.09493975    -0.05700
C1659       C  0.48134682  0.06411200  0.09263342     0.00300
C1660       C  0.52186474  0.08724943  0.09498737    -0.08200
C1661       C  0.56746029  0.06552958  0.09273048     0.62200
H1662       H  0.54975793  0.14899461  0.10205864     0.12900
H1663       H  0.91478522  0.07632282  0.09237905     0.12900
C1664       C  0.89614118  0.15531106  0.10441164     0.62400
F1665       F  0.60231546  0.09409373  0.09567460    -0.22800
F1666       F  0.57271482  0.05320085  0.08065203    -0.20100
F1667       F  0.57106005  0.02774692  0.09992027    -0.19800
F1668       F  0.89151884  0.19708558  0.09915532    -0.19800
F1669       F  0.89235820  0.15960283  0.11698377    -0.20100
F1670       F  0.86132953  0.12861058  0.10037687    -0.22800
C1671       C  0.97774431  0.34032267  0.95236965    -0.05700
C1672       C  0.50637566  0.30350616  0.94924318     0.00300
C1673       C  0.54065260  0.31570228  0.94082803    -0.08300
C1674       C  0.53825313  0.35801090  0.93520921    -0.05700
C1675       C  0.50247636  0.38793725  0.93749089     0.00300
C1676       C  0.97212502  0.38151924  0.94639539    -0.08200
C1677       C  0.93343757  0.41111491  0.95082422     0.62200
H1678       H  0.95469804  0.33144657  0.95970663     0.12900
H1679       H  0.56479032  0.36839595  0.92903382     0.12900
C1680       C  0.58042118  0.28503375  0.93812404     0.62400
F1681       F  0.89531511  0.38542069  0.95254204    -0.22800
F1682       F  0.92244054  0.44463534  0.94274521    -0.20100
F1683       F  0.94485090  0.43046352  0.96188094    -0.19800
F1684       F  0.56572702  0.24577635  0.93285956    -0.22000
F1685       F  0.60244952  0.27519084  0.94885961    -0.20100
F1686       F  0.61095247  0.30431609  0.93011528    -0.22800
C1687       C  0.97114412  0.12979027  0.94601293    -0.05700
C1688       C  0.50455346  0.13805393  0.94947298     0.00300
C1689       C  0.54272172  0.10984307  0.94837377    -0.08300
C1690       C  0.53830637  0.06805239  0.94245753    -0.05700
C1691       C  0.49712113  0.05409672  0.93759280     0.00300
C1692       C  0.96525193  0.08768050  0.94044784    -0.08200
C1693       C  0.91743803  0.07371686  0.93770316     0.62200
H1694       H  0.94208375  0.15105231  0.94780147     0.12900
H1695       H  0.56738630  0.04642789  0.94120964     0.12900
C1696       C  0.58804573  0.12461131  0.95311474     0.62400
F1697       F  0.89061842  0.08080448  0.94795905    -0.22800
F1698       F  0.91397194  0.02895699  0.93455903    -0.20100
F1699       F  0.90113596  0.09959158  0.92826297    -0.19800
F1700       F  0.58536213  0.13203907  0.96559612    -0.19800
F1701       F  0.60071874  0.16386612  0.94738488    -0.20100
F1702       F  0.62111533  0.09263294  0.95091118    -0.22800
C1703       C  0.96048305  0.35304949  0.05135493    -0.05700
C1704       C  0.49179306  0.31208285  0.05315576     0.00300
C1705       C  0.52731541  0.32707552  0.06060589    -0.08300
C1706       C  0.52464518  0.37046102  0.06568938    -0.05700
C1707       C  0.48716920  0.39841198  0.06383988     0.00300
C1708       C  0.95867107  0.39588851  0.05682130    -0.08200
C1709       C  0.91794820  0.42584204  0.05473666     0.62200
H1710       H  0.93318223  0.34167901  0.04565887     0.12900
H1711       H  0.55136533  0.38256660  0.07144835     0.12900
C1712       C  0.56787816  0.29753404  0.06309111     0.62400
F1713       F  0.88316243  0.40248315  0.04936887    -0.22800
F1714       F  0.92968620  0.46057855  0.04704947    -0.20100
F1715       F  0.90199593  0.44342560  0.06568881    -0.19800
F1716       F  0.58710363  0.28323793  0.05216109    -0.19800
F1717       F  0.55469847  0.26063324  0.06980674    -0.20100
F1718       F  0.60036652  0.32009116  0.06965480    -0.22800
C1719       C  0.95501474  0.14484369  0.05724538    -0.05700
C1720       C  0.49114173  0.14674706  0.05312201     0.00300
C1721       C  0.52756967  0.11611785  0.05339066    -0.08300
C1722       C  0.52164407  0.07486662  0.05935711    -0.05700
C1723       C  0.48115206  0.06400637  0.06531510     0.00300
C1724       C  0.94965005  0.10262062  0.06271706    -0.08200
C1725       C  0.90180616  0.08734607  0.06510856     0.62200
H1726       H  0.92574616  0.16597813  0.05584284     0.12900
H1727       H  0.54893739  0.05075331  0.05952035     0.12900
C1728       C  0.57294918  0.12770618  0.04781803     0.62400
F1729       F  0.88122413  0.11596711  0.07346042    -0.22800
F1730       F  0.89916971  0.04401162  0.06945577    -0.20100
F1731       F  0.87823055  0.08907116  0.05427151    -0.19800
F1732       F  0.58927676  0.16602783  0.05336863    -0.19800
F1733       F  0.56881185  0.13509755  0.03541453    -0.20100
F1734       F  0.60410735  0.09358496  0.04935979    -0.22800
C1735       C  0.03056371  0.26732304  0.99411887    -0.05700
C1736       C  0.49819203  0.22235745  0.98830921     0.00300
C1737       C  0.47356391  0.19068751  0.99534377    -0.08300
C1738       C  0.47336802  0.19481903  0.00818322    -0.05700
C1739       C  0.49669352  0.22905798  0.01424675     0.00300
C1740       C  0.02855643  0.27317373  0.00690631    -0.08200
C1741       C  0.05150805  0.31363877  0.01258168     0.62200
H1742       H  0.04816772  0.29166126  0.98856261     0.12900
H1743       H  0.45481903  0.17093008  0.01366009     0.12900
C1744       C  0.44692125  0.15296161  0.98950030     0.62400
F1745       F  0.07617003  0.33753960  0.00403963    -0.22800
F1746       F  0.08073014  0.29988538  0.02159339    -0.20100
F1747       F  0.01956323  0.34248971  0.01754730    -0.19800
F1748       F  0.47603196  0.12166871  0.98435624    -0.19800
F1749       F  0.41899750  0.16998452  0.98059357    -0.20100
F1750       F  0.42021449  0.13089433  0.99796171    -0.22800
C1751       C  0.52361387  0.31103550  0.79194739    -0.05700
C1752       C  0.98198802  0.30270337  0.79285728     0.00300
C1753       C  0.94351725  0.31548214  0.78625777    -0.08300
C1754       C  0.94731639  0.34991296  0.77763693    -0.05700
C1755       C  0.49407999  0.35235968  0.77460521     0.00300
C1756       C  0.52815559  0.34631729  0.78352676    -0.08200
C1757       C  0.56843086  0.37717711  0.78453683     0.62200
H1758       H  0.54982995  0.30438763  0.79850431     0.12900
H1759       H  0.91810738  0.35952607  0.77242515     0.12900
C1760       C  0.89898529  0.29177432  0.78802551     0.62400
F1761       F  0.59451904  0.36715127  0.79459450    -0.22800
F1762       F  0.55384012  0.42109431  0.78582655    -0.20100
F1763       F  0.59541048  0.37303602  0.77421766    -0.19800
F1764       F  0.88747846  0.29115792  0.80030725    -0.19800
F1765       F  0.90266720  0.24830803  0.78368609    -0.20100
F1766       F  0.86455684  0.31278696  0.78180258    -0.22800
C1767       C  0.95763214  0.08086108  0.78329267    -0.05700
C1768       C  0.99921263  0.07113582  0.77757996     0.00300
C1769       C  0.53687616  0.07307514  0.78309065    -0.08300
C1770       C  0.53253525  0.10791778  0.79176757    -0.05700
C1771       C  0.99101325  0.14107735  0.79492726     0.00300
C1772       C  0.95291143  0.11556062  0.79195604    -0.08200
C1773       C  0.90736681  0.12592692  0.79771200     0.62200
H1774       H  0.92844932  0.06154976  0.78076083     0.12900
H1775       H  0.56180607  0.12645451  0.79464951     0.12900
C1776       C  0.58367951  0.06024792  0.77851198     0.62400
F1777       F  0.87448915  0.09695064  0.79363279    -0.22800
F1778       F  0.39508687  0.15447641  0.79583034    -0.20100
F1779       F  0.91005816  0.12208742  0.81028051    -0.19800
F1780       F  0.58712470  0.06784965  0.76606515    -0.19800
F1781       F  0.09781917  0.04284464  0.77853903    -0.20100
F1782       F  0.61684612  0.08499477  0.78416457    -0.22800
C1783       C  0.51763099  0.18504285  0.83975630    -0.05700
C1784       C  0.98372638  0.22858208  0.83331596     0.00300
C1785       C  0.95764410  0.25939835  0.84042285    -0.08300
C1786       C  0.95906478  0.25654655  0.85327031    -0.05700
C1787       C  0.98605692  0.22487950  0.85924004     0.00300
C1788       C  0.52012530  0.18485340  0.85259972    -0.08200
C1789       C  0.54773180  0.14836201  0.85871693     0.62200
H1790       H  0.53443753  0.15880122  0.83453632     0.12900
H1791       H  0.93906727  0.27945884  0.85882623     0.12900
C1792       C  0.92809481  0.29499761  0.83463630     0.62400
F1793       F  0.57424738  0.12487947  0.85036614    -0.22800
F1794       F  0.51939346  0.11798204  0.86432916    -0.20100
F1795       F  0.57605668  0.16706808  0.86728920    -0.19800
F1796       F  0.89985477  0.27546341  0.82619500    -0.19800
F1797       F  0.95474752  0.32662838  0.82893301    -0.20100
F1798       F  0.90152005  0.31720193  0.84322958    -0.22800
C1799       C  0.53438199  0.37146048  0.90563424    -0.05700
C1800       C  0.49417193  0.39003273  0.91024460     0.00300
C1801       C  0.94975548  0.36919879  0.90975710    -0.08300
C1802       C  0.95074029  0.32709640  0.90384776    -0.05700
C1803       C  0.49463865  0.30654293  0.89779009     0.00300
C1804       C  0.53535088  0.32992760  0.89945168    -0.08200
C1805       C  0.57966514  0.31059667  0.89484145     0.62200
H1806       H  0.56532311  0.38952101  0.90716241     0.12900
H1807       H  0.92073600  0.30661417  0.90383056     0.12900
C1808       C  0.90512302  0.38460474  0.91520322     0.62400
F1809       F  0.61557647  0.33777917  0.89778612    -0.22800
F1810       F  0.57862015  0.30599162  0.88225751    -0.20100
F1811       F  0.58686112  0.26904322  0.90001811    -0.19800
F1812       F  0.90551611  0.42860452  0.91918767    -0.19800
F1813       F  0.89389202  0.35738900  0.92494621    -0.20100
F1814       F  0.87211469  0.38111465  0.90642802    -0.22800
C1815       C  0.52821565  0.08562199  0.91207636    -0.05700
C1816       C  0.49202443  0.05613199  0.91046371     0.00300
C1817       C  0.95443407  0.07508864  0.90368092    -0.08300
C1818       C  0.95541808  0.11653013  0.89757715    -0.05700
C1819       C  0.49408825  0.14070341  0.89874934     0.00300
C1820       C  0.52958209  0.12798441  0.90651921    -0.08200
C1821       C  0.56955039  0.15825049  0.90857079     0.62200
H1822       H  0.55589304  0.07488092  0.91770522     0.12900
H1823       H  0.92738877  0.12619667  0.89189113     0.12900
C1824       C  0.91378878  0.04563568  0.90155081     0.62400
F1825       F  0.60091592  0.13909077  0.91624803    -0.22800
F1826       F  0.55510061  0.19783297  0.91387332    -0.20100
F1827       F  0.59042614  0.16727957  0.89750434    -0.19800
F1828       F  0.87507504  0.07155765  0.90119784    -0.19800
F1829       F  0.90768431  0.01439856  0.91062582    -0.20100
F1830       F  0.91899584  0.02366274  0.89044918    -0.22800
C1831       C  0.50104724  0.76149130  0.89059364     0.80300
N1832       N  0.50290892  0.72358361  0.89742932    -0.78000
C1833       C  0.50226426  0.68272308  0.89189353     0.82800
N1834       N  0.99364939  0.68732890  0.87992784    -0.77900
C1835       C  0.99567804  0.72539221  0.87323792     0.82900
N1836       N  0.99966187  0.76552931  0.87909363    -0.79600
C1837       C  0.98703185  0.72295612  0.82020950     0.80300
N1838       N  0.98803573  0.68181603  0.81471640    -0.78000
C1839       C  0.98856208  0.67827323  0.80236877     0.82800
N1840       N  0.98795510  0.71558333  0.79545419    -0.77900
C1841       C  0.98628955  0.75660128  0.80072633     0.82900
N1842       N  0.98678850  0.76039143  0.81312367    -0.79600
C1843       C  0.48714124  0.69161029  0.04539259     0.80300
N1844       N  0.49219719  0.69320900  0.03308176    -0.78000
C1845       C  0.49538910  0.73302774  0.02720847     0.82800
N1846       N  0.49256142  0.77170041  0.03380440    -0.77900
C1847       C  0.48744507  0.77053134  0.04616644     0.82900
N1848       N  0.48448604  0.73038992  0.05195879    -0.79600
C1849       C  0.52305775  0.76170371  0.95573494     0.80300
N1850       N  0.52547687  0.72155035  0.94973929    -0.78000
C1851       C  0.52607075  0.68255698  0.95615298     0.82800
N1852       N  0.52261802  0.68381755  0.96851251    -0.77900
C1853       C  0.51899925  0.72346255  0.97457922     0.82900
N1854       N  0.51929818  0.76229910  0.96813839    -0.79600
C1855       C  0.47136656  0.76975815  0.11024195     0.80300
N1856       N  0.46892806  0.72960023  0.10436194    -0.78000
C1857       C  0.46887230  0.69093864  0.11089608     0.82800
N1858       N  0.47187149  0.69272302  0.12330830    -0.77900
C1859       C  0.47423721  0.73300511  0.12923478     0.82900
N1860       N  0.47469930  0.77108080  0.12256503    -0.79600
C1861       C  0.49916146  0.73729807  0.18200505     0.80300
N1862       N  0.50260838  0.69904626  0.18859738    -0.78000
C1863       C  0.50527322  0.70073585  0.20093042     0.82800
N1864       N  0.50383552  0.74076592  0.20676846    -0.77900
C1865       C  0.49939279  0.77949847  0.20047426     0.82900
N1866       N  0.49699765  0.77762297  0.18804541    -0.79600
C1867       C  0.47783681  0.52317827  0.08398792     0.02400
C1868       C  0.47992199  0.52302349  0.07102458     0.02400
C1869       C  0.48457722  0.48212340  0.06472119    -0.18100
C1870       C  0.47872521  0.93961714  0.07231759     0.02400
C1871       C  0.47828368  0.93962950  0.08524997     0.02400
C1872       C  0.47728953  0.48212688  0.09022479    -0.18100
H1873       H  0.47392386  0.48220642  0.10009317     0.04400
H1874       H  0.48867630  0.48231104  0.05487120     0.04400
C1875       C  0.50689144  0.51309170  0.93084947     0.02400
C1876       C  0.50171375  0.51404514  0.91797301     0.02400
C1877       C  0.49908479  0.47321704  0.91152911    -0.18100
C1878       C  0.49679812  0.93067837  0.91684342     0.02400
C1879       C  0.50019324  0.92995155  0.92978016     0.02400
C1880       C  0.50853367  0.47165420  0.93688443    -0.18100
H1881       H  0.51503390  0.47120333  0.94661319     0.04400
H1882       H  0.49827100  0.47341327  0.90162320     0.04400
In1883     In  0.98806953  0.47410419  0.74999388     1.36900
C1884       C  0.49903944  0.88708725  0.76622551     0.77700
O1885       O  0.93606019  0.51080744  0.73918928    -0.60700
O1886       O  0.95127682  0.93175545  0.74005346    -0.51600
C1887       C  0.99242606  0.53484558  0.76775753     0.70400
O1888       O  0.52751883  0.50752829  0.76062064    -0.46500
C1889       C  0.56656671  0.95815002  0.73454387     0.75100
O1890       O  0.96218053  0.92263451  0.76309249    -0.58400
O1891       O  0.54713839  0.99294542  0.73862013    -0.48500
O1892       O  0.53492845  0.90533642  0.76265272    -0.54800
C1893       C  0.93432004  0.96553418  0.73498324     0.85300
O1894       O  0.95562959  0.52042688  0.76368682    -0.56700
O1895       O  0.54254168  0.42178994  0.73723749    -0.60000
In1896     In  0.50555174  0.49155874  0.25179445     1.36900
C1897       C  0.51132507  0.55608485  0.23530428     0.77700
O1898       O  0.97026075  0.96820216  0.26083876    -0.60700
O1899       O  0.95056315  0.53765233  0.26238522    -0.51600
C1900       C  0.50454079  0.92985749  0.23390306     0.70400
O1901       O  0.54137655  0.95037197  0.23449230    -0.46500
C1902       C  0.56766574  0.48260205  0.26883208     0.75100
O1903       O  0.47472048  0.53790639  0.23833095    -0.58400
O1904       O  0.55026291  0.44960853  0.26346310    -0.48500
O1905       O  0.54491884  0.54170457  0.24104699    -0.54800
C1906       C  0.93834715  0.50121146  0.26715049     0.85300
O1907       O  0.47562230  0.94280673  0.24166679    -0.56700
O1908       O  0.57365310  0.02549130  0.26148150    -0.60000
C1909       C  0.71499884  0.54837469  0.39058851     0.80300
N1910       N  0.75359424  0.55395698  0.39698994    -0.78000
C1911       C  0.79437982  0.54855283  0.39141729     0.82800
N1912       N  0.79625083  0.53755795  0.37932082    -0.77900
C1913       C  0.75794481  0.53278558  0.37278025     0.82900
N1914       N  0.71749581  0.53804232  0.37848499    -0.79600
C1915       C  0.75424448  0.49608808  0.32071092     0.80300
N1916       N  0.71411896  0.49153329  0.31500684    -0.78000
C1917       C  0.71271890  0.48490391  0.30273744     0.82800
N1918       N  0.75146108  0.48273789  0.29619325    -0.77900
C1919       C  0.79162519  0.48744060  0.30169212     0.82900
N1920       N  0.79307297  0.49497584  0.31397155    -0.79600
C1921       C  0.72050770  0.98826816  0.45594674     0.80300
N1922       N  0.76059562  0.98802574  0.44987673    -0.78000
C1923       C  0.79971358  0.98746927  0.45616673     0.82800
N1924       N  0.79870346  0.98737846  0.46857855    -0.77900
C1925       C  0.75886249  0.98797034  0.47478718     0.82900
N1926       N  0.71998864  0.98906889  0.46838178    -0.79600
C1927       C  0.71664666  0.01226096  0.54610713     0.80300
N1928       N  0.75504434  0.01614964  0.55262683    -0.78000
C1929       C  0.79555776  0.01550380  0.54680401     0.82800
N1930       N  0.79744616  0.01040284  0.53446760    -0.77900
C1931       C  0.75940065  0.00739284  0.52780246     0.82900
N1932       N  0.71889427  0.00812920  0.53372289    -0.79600
C1933       C  0.75290922  0.97428771  0.68145276     0.80300
N1934       N  0.71336771  0.97427618  0.68781112    -0.78000
C1935       C  0.71340726  0.97041050  0.70015168     0.82800
N1936       N  0.75266188  0.96639003  0.70610086    -0.77900
C1937       C  0.79229818  0.96693472  0.69994637     0.82900
N1938       N  0.79249665  0.97098274  0.68756586    -0.79600
C1939       C  0.79287215  0.99979622  0.61002640     0.80300
N1940       N  0.75310825  0.00215012  0.60411553    -0.78000
C1941       C  0.71387915  0.00078060  0.61054789     0.82800
N1942       N  0.71452904  0.99689650  0.62292587    -0.77900
C1943       C  0.75435035  0.99539411  0.62890769     0.82900
N1944       N  0.79329178  0.99667301  0.62238527    -0.79600
C1945       C  0.54634502  0.02041449  0.57213551     0.02400
C1946       C  0.54573430  0.01292730  0.58493864     0.02400
C1947       C  0.50455417  0.01267564  0.59131122    -0.18100
C1948       C  0.96393981  0.01545068  0.58516785     0.02400
C1949       C  0.96457965  0.02048030  0.57230916     0.02400
C1950       C  0.50545715  0.02444595  0.56598935    -0.18100
H1951       H  0.50561601  0.02853127  0.55616063     0.04400
H1952       H  0.50429155  0.00857797  0.60113581     0.04400
C1953       C  0.55179066  0.01052467  0.41726237     0.02400
C1954       C  0.55172897  0.00058208  0.42992240     0.02400
C1955       C  0.51075535  0.99166239  0.43589858    -0.18100
C1956       C  0.97026675  0.99501339  0.43033964     0.02400
C1957       C  0.97010621  0.00086416  0.41745933     0.02400
C1958       C  0.51077848  0.01250522  0.41102259    -0.18100
H1959       H  0.51092637  0.02035799  0.40135462     0.04400
H1960       H  0.51074315  0.98422499  0.44559155     0.04400
C1961       C  0.86264996  0.04064933  0.60569623    -0.05700
C1962       C  0.83568357  0.00333118  0.60326938     0.00300
C1963       C  0.85108546  0.96952047  0.59511064    -0.08300
C1964       C  0.89407940  0.97381541  0.58983621    -0.05700
C1965       C  0.92089430  0.01154645  0.59207399     0.00300
C1966       C  0.90496227  0.04584124  0.60006951    -0.08200
C1967       C  0.92199014  0.65405883  0.60116441     0.62200
H1968       H  0.85008812  0.06588038  0.61205806     0.12900
H1969       H  0.90680683  0.94811078  0.58367599     0.12900
C1970       C  0.82229609  0.92923128  0.59201294     0.62400
F1971       F  0.96905500  0.07712693  0.60958641    -0.22800
F1972       F  0.90701107  0.11975333  0.60896621    -0.20100
F1973       F  0.93264071  0.67252516  0.58995061    -0.19800
F1974       F  0.78441835  0.94329812  0.58586467    -0.19800
F1975       F  0.81492685  0.46508115  0.60542187    -0.20100
F1976       F  0.84509134  0.89868049  0.58460952    -0.22800
C1977       C  0.64267921  0.96698345  0.60381283    -0.05700
C1978       C  0.67078121  0.00454324  0.60414534     0.00300
C1979       C  0.65716701  0.04499691  0.59858173    -0.08300
C1980       C  0.61566843  0.04627709  0.59263413    -0.05700
C1981       C  0.58797925  0.00848873  0.59193897     0.00300
C1982       C  0.60119966  0.96803589  0.59771907    -0.08200
C1983       C  0.57235732  0.92601403  0.59737289     0.62200
H1984       H  0.65380971  0.93666181  0.60829720     0.12900
H1985       H  0.60443963  0.07697152  0.58845134     0.12900
C1986       C  0.68592491  0.08687592  0.59913163     0.62400
F1987       F  0.59393103  0.88973969  0.60260912    -0.22800
F1988       F  0.56253838  0.91463159  0.58544013    -0.20100
F1989       F  0.52786495  0.49074075  0.60508781    -0.19800
F1990       F  0.72577888  0.07964345  0.59280878    -0.19800
F1991       F  0.69566073  0.65026679  0.60989667    -0.20100
F1992       F  0.66357015  0.67651389  0.59292503    -0.22800
C1993       C  0.77247295  0.53974536  0.66275775    -0.05700
C1994       C  0.75296203  0.97862584  0.66798850     0.00300
C1995       C  0.72636655  0.95099785  0.66037678    -0.08300
C1996       C  0.72757587  0.95807130  0.64767454    -0.05700
C1997       C  0.75519089  0.99080269  0.64238207     0.00300
C1998       C  0.77607736  0.55185652  0.65036841    -0.08200
C1999       C  0.80780240  0.58941015  0.64672210     0.62200
H2000       H  0.79359628  0.55599896  0.66944261     0.12900
H2001       H  0.70718231  0.93757364  0.64171381     0.12900
C2002       C  0.69807165  0.91313794  0.66554105     0.62400
F2003       F  0.82536782  0.61106784  0.65682137    -0.22800
F2004       F  0.78499216  0.62105770  0.63992021    -0.20100
F2005       F  0.84339690  0.57222722  0.63991617    -0.19800
F2006       F  0.66139401  0.93060303  0.67184067    -0.19800
F2007       F  0.72356369  0.88728680  0.67336264    -0.20100
F2008       F  0.68226549  0.88520133  0.65640449    -0.22800
C2009       C  0.86916834  0.98316649  0.55180953    -0.05700
C2010       C  0.83782451  0.01781741  0.55372235     0.00300
C2011       C  0.84845817  0.61850931  0.55950661    -0.08300
C2012       C  0.89112892  0.05498295  0.56698784    -0.05700
C2013       C  0.92232236  0.01995702  0.56517937     0.00300
C2014       C  0.91130678  0.98330933  0.55747034    -0.08200
C2015       C  0.94366722  0.94442350  0.55514176     0.62200
H2016       H  0.86030859  0.95583146  0.54573752     0.12900
H2017       H  0.90139827  0.64702956  0.57035756     0.12900
C2018       C  0.82038689  0.66118682  0.55943672     0.62400
F2019       F  0.97857217  0.95832775  0.54767439    -0.22800
F2020       F  0.91294819  0.46474378  0.55144655    -0.20100
F2021       F  0.96091759  0.92880110  0.56602379    -0.19800
F2022       F  0.81275790  0.67400574  0.54749035    -0.19800
F2023       F  0.83537202  0.12761214  0.57022286    -0.20100
F2024       F  0.77857392  0.07878209  0.56968695    -0.22800
C2025       C  0.64947172  0.05435981  0.55319000    -0.05700
C2026       C  0.67266403  0.01339304  0.55245150     0.00300
C2027       C  0.65371127  0.97461098  0.55772124    -0.08300
C2028       C  0.61207901  0.97839761  0.56384067    -0.05700
C2029       C  0.58911949  0.01951912  0.56488976     0.00300
C2030       C  0.60753785  0.05818681  0.55924751    -0.08200
C2031       C  0.58310272  0.10309358  0.55938928     0.62200
H2032       H  0.66449582  0.08334703  0.54888249     0.12900
H2033       H  0.60059729  0.50674493  0.56971040     0.12900
C2034       C  0.68429561  0.49385553  0.55984497     0.62400
F2035       F  0.60979679  0.13702208  0.55474977    -0.22800
F2036       F  0.56112635  0.66907203  0.57085235    -0.20100
F2037       F  0.54510134  0.10043652  0.55228048    -0.19800
F2038       F  0.72328114  0.50347030  0.56608709    -0.19800
F2039       F  0.68346236  0.91786958  0.54461267    -0.20100
F2040       F  0.65277370  0.89582159  0.56237914    -0.22800
C2041       C  0.79256002  0.01628102  0.49392729    -0.05700
C2042       C  0.75846581  0.99107164  0.48840299     0.00300
C2043       C  0.72573759  0.97003593  0.49594504    -0.08300
C2044       C  0.72826032  0.97562671  0.50871748    -0.05700
C2045       C  0.76165375  0.00178570  0.51423677     0.00300
C2046       C  0.79464611  0.02261958  0.50668350    -0.08200
C2047       C  0.83090134  0.05304532  0.51181106     0.62200
H2048       H  0.79407956  0.62527976  0.48858110     0.12900
H2049       H  0.70348086  0.95977869  0.51455551     0.12900
C2050       C  0.68815829  0.94171149  0.49070474     0.62400
F2051       F  0.85494767  0.07439713  0.50264738    -0.22800
F2052       F  0.86115968  0.02819996  0.51853029    -0.20100
F2053       F  0.77389504  0.66680001  0.52099690    -0.19800
F2054       F  0.65758854  0.96909789  0.48486434    -0.19800
F2055       F  0.69369998  0.46306223  0.49869972    -0.20100
F2056       F  0.73900897  0.47058340  0.48237557    -0.22800
C2057       C  0.90241707  0.03079335  0.43931020    -0.05700
C2058       C  0.92771915  0.99132697  0.43756505     0.00300
C2059       C  0.91206729  0.95075611  0.44287869    -0.08300
C2060       C  0.86978891  0.95082405  0.44879443    -0.05700
C2061       C  0.84324059  0.98967314  0.44963195     0.00300
C2062       C  0.85984656  0.03052197  0.44499141    -0.08200
C2063       C  0.83273165  0.07362788  0.44615963     0.62200
H2064       H  0.91634837  0.06208131  0.43611941     0.12900
H2065       H  0.85730740  0.92008947  0.45282396     0.12900
C2066       C  0.93814752  0.90682314  0.44301157     0.62400
F2067       F  0.86281901  0.68728766  0.44436173    -0.22800
F2068       F  0.83342622  0.65771421  0.46145336    -0.20100
F2069       F  0.79326641  0.06958055  0.43969103    -0.19800
F2070       F  0.96858486  0.47853767  0.43645327    -0.19800
F2071       F  0.91268026  0.87350736  0.43766271    -0.20100
F2072       F  0.94626216  0.89516995  0.45502561    -0.22800
C2073       C  0.64464872  0.02108347  0.45323067    -0.05700
C2074       C  0.67750434  0.99023478  0.44918726     0.00300
C2075       C  0.66141363  0.52997756  0.44125080    -0.08300
C2076       C  0.61986902  0.53262644  0.43524211    -0.05700
C2077       C  0.59425823  0.99821467  0.43698518     0.00300
C2078       C  0.60372114  0.02682376  0.44707680    -0.08200
C2079       C  0.57203274  0.06319020  0.45191085     0.62200
H2080       H  0.65178324  0.04221395  0.46107607     0.12900
H2081       H  0.61033228  0.50636596  0.42890400     0.12900
C2082       C  0.69184613  0.48953762  0.43919584     0.62400
F2083       F  0.55086193  0.04799402  0.46239996    -0.22800
F2084       F  0.53399819  0.64741572  0.44199080    -0.20100
F2085       F  0.59616588  0.10132389  0.45479202    -0.19800
F2086       F  0.70132766  0.46980975  0.45030889    -0.19800
F2087       F  0.73712723  0.94845078  0.42877111    -0.20100
F2088       F  0.68262286  0.89828804  0.42590458    -0.22800
C2089       C  0.73663283  0.97976475  0.35325439    -0.05700
C2090       C  0.75970800  0.52265186  0.35947884     0.00300
C2091       C  0.78296784  0.55026716  0.35103792    -0.08300
C2092       C  0.78066759  0.54005755  0.33846653    -0.05700
C2093       C  0.75556023  0.50374642  0.33411025     0.00300
C2094       C  0.73635497  0.97320664  0.34047365    -0.08200
C2095       C  0.70493534  0.93826364  0.33515221     0.62200
H2096       H  0.71353599  0.96119859  0.35898863     0.12900
H2097       H  0.79802120  0.56088440  0.33187207     0.12900
C2098       C  0.80896036  0.59116583  0.35522170     0.62400
F2099       F  0.68447858  0.91292917  0.34418533    -0.22800
F2100       F  0.72890294  0.90918599  0.32760058    -0.20100
F2101       F  0.67131635  0.95896861  0.32858681    -0.19800
F2102       F  0.84613704  0.57770907  0.36175899    -0.19800
F2103       F  0.78181556  0.61822733  0.36253829    -0.20100
F2104       F  0.82381738  0.61661306  0.34544769    -0.22800
C2105       C  0.88949140  0.59497237  0.41096759    -0.05700
C2106       C  0.92733555  0.00374260  0.41048446     0.00300
C2107       C  0.91065663  0.96733331  0.40352284    -0.08300
C2108       C  0.86904609  0.97224903  0.39762362    -0.05700
C2109       C  0.83683293  0.55332821  0.39839956     0.00300
C2110       C  0.84660376  0.59151033  0.40569427    -0.08200
C2111       C  0.81222511  0.62856929  0.40792616     0.62200
H2112       H  0.89832406  0.62489014  0.41600462     0.12900
H2113       H  0.85591425  0.94504648  0.39212916     0.12900
C2114       C  0.93710671  0.92394761  0.40207323     0.62400
F2115       F  0.83013981  0.66423184  0.41437996    -0.22800
F2116       F  0.77660572  0.61201725  0.41471589    -0.20100
F2117       F  0.82509221  0.10931804  0.39535382    -0.19800
F2118       F  0.92388196  0.44518903  0.39658980    -0.19800
F2119       F  0.94721233  0.90675739  0.41341766    -0.20100
F2120       F  0.97657273  0.93196663  0.39569864    -0.22800
C2121       C  0.66394965  0.59359004  0.40386589    -0.05700
C2122       C  0.67066135  0.55475014  0.39674369     0.00300
C2123       C  0.65153714  0.97478794  0.39775810    -0.08300
C2124       C  0.60982177  0.97610069  0.40392792    -0.05700
C2125       C  0.59449987  0.01471285  0.41012022     0.00300
C2126       C  0.62289341  0.60252167  0.40992773    -0.08200
C2127       C  0.61731594  0.64857430  0.41570935     0.62200
H2128       H  0.69052904  0.61829477  0.40427679     0.12900
H2129       H  0.58908601  0.94636216  0.40425150     0.12900
C2130       C  0.66769177  0.93135754  0.39185428     0.62400
F2131       F  0.64746783  0.65325286  0.42516467    -0.22800
F2132       F  0.57438393  0.65648250  0.42012095    -0.20100
F2133       F  0.60459792  0.13070817  0.40619911    -0.19800
F2134       F  0.67835721  0.45878223  0.38999971    -0.19800
F2135       F  0.66749469  0.93573140  0.37928245    -0.20100
F2136       F  0.64047532  0.89558175  0.39497101    -0.22800
C2137       C  0.85931069  0.52628106  0.29412188    -0.05700
C2138       C  0.83263518  0.48770975  0.29399993     0.00300
C2139       C  0.88543508  0.96619015  0.29310719    -0.08300
C2140       C  0.91938624  0.96921394  0.28406770    -0.05700
C2141       C  0.90301492  0.49800459  0.27675181     0.00300
C2142       C  0.89444228  0.53230850  0.28556607    -0.08200
C2143       C  0.92214951  0.57490651  0.28606466     0.62200
H2144       H  0.85096927  0.55265589  0.30062930     0.12900
H2145       H  0.94646879  0.94479144  0.28378663     0.12900
C2146       C  0.88562563  0.92772342  0.30211271     0.62400
F2147       F  0.91143999  0.60090531  0.29622941    -0.22800
F2148       F  0.91425507  0.60046541  0.27578776    -0.20100
F2149       F  0.96736909  0.56411395  0.28662894    -0.19800
F2150       F  0.84590100  0.90404524  0.30129220    -0.19800
F2151       F  0.88989472  0.94446355  0.31385852    -0.20100
F2152       F  0.92084264  0.89816263  0.29986203    -0.22800
C2153       C  0.60395954  0.51416687  0.28712415    -0.05700
C2154       C  0.60111298  0.47845733  0.27869999     0.00300
C2155       C  0.63127991  0.44161405  0.27960764    -0.08300
C2156       C  0.66548806  0.44378883  0.28833975    -0.05700
C2157       C  0.67003791  0.48086276  0.29615907     0.00300
C2158       C  0.63796258  0.51596732  0.29593412    -0.08200
C2159       C  0.64081571  0.55602474  0.30453720     0.62200
H2160       H  0.57986534  0.54139576  0.28654926     0.12900
H2161       H  0.69022860  0.41713544  0.28886355     0.12900
C2162       C  0.62905476  0.40109881  0.27113443     0.62400
F2163       F  0.64999731  0.10543980  0.29279229    -0.22800
F2164       F  0.72057769  0.08108356  0.29525054    -0.20100
F2165       F  0.63682209  0.54177727  0.31651011    -0.19800
F2166       F  0.64833470  0.91137762  0.25769216    -0.19800
F2167       F  0.58859102  0.37928210  0.27284058    -0.20100
F2168       F  0.66313470  0.37049566  0.27335533    -0.22800
C2169       C  0.86372000  0.51831112  0.72266638    -0.05700
C2170       C  0.90003508  0.96204953  0.72536698     0.00300
C2171       C  0.86560204  0.92941846  0.72567008    -0.08300
C2172       C  0.83298071  0.93036713  0.71651264    -0.05700
C2173       C  0.83378794  0.96229644  0.70712639     0.00300
C2174       C  0.86986863  0.99287571  0.70632775    -0.08200
C2175       C  0.80447709  0.56725548  0.71283929     0.62200
H2176       H  0.86943869  0.54523389  0.72913894     0.12900
H2177       H  0.80532497  0.90691861  0.71682976     0.12900
C2178       C  0.86161905  0.89520470  0.73589056     0.62400
F2179       F  0.91046667  0.05402802  0.69724408    -0.22800
F2180       F  0.83562586  0.05255758  0.69539552    -0.20100
F2181       F  0.80866439  0.58363835  0.70106974    -0.19800
F2182       F  0.85994008  0.91699132  0.74709753    -0.19800
F2183       F  0.95792798  0.41519626  0.71360911    -0.20100
F2184       F  0.82317211  0.86954685  0.73488241    -0.22800
C2185       C  0.59726668  0.50177588  0.71721208    -0.05700
C2186       C  0.60225630  0.95982839  0.72490568     0.00300
C2187       C  0.61994208  0.92100266  0.71882866    -0.08300
C2188       C  0.65430227  0.92651221  0.71004676    -0.05700
C2189       C  0.67162742  0.96875679  0.70731311     0.00300
C2190       C  0.63056711  0.50881023  0.70826389    -0.08200
C2191       C  0.63504173  0.55443816  0.70228012     0.62200
H2192       H  0.57482789  0.52911208  0.71970915     0.12900
H2193       H  0.66953100  0.89755799  0.70558756     0.12900
C2194       C  0.60388493  0.87380224  0.72162438     0.62400
F2195       F  0.62969997  0.55008342  0.68978651    -0.22800
F2196       F  0.67695762  0.57209457  0.70460803    -0.20100
F2197       F  0.60300804  0.58462001  0.70660460    -0.19800
F2198       F  0.55805422  0.87093554  0.71980420    -0.19800
F2199       F  0.61379525  0.86317892  0.73360039    -0.20100
F2200       F  0.62449634  0.84195399  0.71415602    -0.22800
C2201       C  0.01580945  0.87072712  0.20367732    -0.05700
C2202       C  0.49473025  0.82205669  0.20763336     0.00300
C2203       C  0.51541406  0.86310879  0.20436045    -0.08300
C2204       C  0.51651907  0.89802398  0.21313018    -0.05700
C2205       C  0.49668238  0.89369001  0.22479196     0.00300
C2206       C  0.00916831  0.90623380  0.21205153    -0.08200
C2207       C  0.96966826  0.93806756  0.21044594     0.62200
H2208       H  0.99130175  0.86473178  0.19659865     0.12900
H2209       H  0.53374736  0.92898488  0.21102571     0.12900
C2210       C  0.53753228  0.86985519  0.19194175     0.62400
F2211       F  0.94954370  0.93233018  0.19918721    -0.22800
F2212       F  0.98406093  0.98205142  0.21122553    -0.20100
F2213       F  0.93762453  0.93034283  0.21942378    -0.19800
F2214       F  0.50596579  0.86504811  0.18283985    -0.19800
F2215       F  0.57163792  0.83869788  0.19021299    -0.20100
F2216       F  0.55589277  0.91224402  0.19083403    -0.22800
C2217       C  0.54676849  0.65533361  0.21560332    -0.05700
C2218       C  0.50894204  0.65979376  0.20820962     0.00300
C2219       C  0.98644285  0.66317099  0.21251339    -0.08300
C2220       C  0.98444223  0.62854122  0.22113854    -0.05700
C2221       C  0.51360552  0.59097746  0.22570212     0.00300
C2222       C  0.55011804  0.62119484  0.22434929    -0.08200
C2223       C  0.59175808  0.61894645  0.23225951     0.62200
H2224       H  0.57328457  0.67986517  0.21465201     0.12900
H2225       H  0.95202329  0.61543806  0.22387109     0.12900
C2226       C  0.94350849  0.68304448  0.20739591     0.62400
F2227       F  0.62186092  0.65281584  0.22954331    -0.22800
F2228       F  0.61375226  0.57847593  0.23035371    -0.20100
F2229       F  0.57963461  0.62333289  0.24445783    -0.19800
F2230       F  0.94294544  0.67720245  0.19484488    -0.19800
F2231       F  0.94131633  0.72840162  0.21010471    -0.20100
F2232       F  0.90554668  0.66294375  0.21225826    -0.22800
C2233       C  0.50363790  0.70024423  0.14830844    -0.05700
C2234       C  0.47980157  0.73523795  0.14275781     0.00300
C2235       C  0.00026860  0.78835833  0.14935462    -0.08300
C2236       C  0.00902500  0.78728358  0.16197598    -0.05700
C2237       C  0.49429238  0.73504010  0.16842955     0.00300
C2238       C  0.51175759  0.69944248  0.16096611    -0.08200
C2239       C  0.53959028  0.66087113  0.16601569     0.62200
H2240       H  0.51650151  0.67334438  0.14254688     0.12900
H2241       H  0.00447251  0.81758375  0.16734910     0.12900
C2242       C  0.98378889  0.83234443  0.14390062     0.62400
F2243       F  0.55950733  0.63537796  0.15679297    -0.22800
F2244       F  0.51242596  0.63264524  0.17276127    -0.20100
F2245       F  0.57363912  0.67727389  0.17327520    -0.19800
F2246       F  0.94391761  0.82546301  0.13777963    -0.19800
F2247       F  0.01595671  0.84926845  0.13597949    -0.20100
F2248       F  0.97558566  0.86482204  0.15276064    -0.22800
C2249       C  0.43698775  0.87291200  0.09249636    -0.05700
C2250       C  0.47757644  0.89677823  0.09211434     0.00300
C2251       C  0.51626468  0.87833506  0.09773824    -0.08300
C2252       C  0.51264692  0.83655982  0.10351848    -0.05700
C2253       C  0.47259210  0.81215513  0.10344865     0.00300
C2254       C  0.43391666  0.83047380  0.09798180    -0.08200
C2255       C  0.38957117  0.80556444  0.09819682     0.62200
H2256       H  0.40759673  0.88780482  0.08844726     0.12900
H2257       H  0.54175474  0.82243603  0.10801999     0.12900
C2258       C  0.56216112  0.90036183  0.09792967     0.62400
F2259       F  0.35536773  0.83032820  0.09296806    -0.22800
F2260       F  0.37721864  0.79630373  0.11014879    -0.20100
F2261       F  0.91736602  0.77041682  0.08925015    -0.19800
F2262       F  0.56475104  0.93880226  0.09099756    -0.19800
F2263       F  0.10882977  0.88801548  0.09510538    -0.20100
F2264       F  0.07864081  0.93369868  0.10946150    -0.22800
C2265       C  0.51171337  0.63178444  0.09998193    -0.05700
C2266       C  0.47009987  0.64727172  0.10442846     0.00300
C2267       C  0.94518446  0.63460604  0.10210340    -0.08300
C2268       C  0.94821857  0.59377213  0.09559948    -0.05700
C2269       C  0.47653739  0.56564930  0.09123747     0.00300
C2270       C  0.51596438  0.59031430  0.09383474    -0.08200
C2271       C  0.56251249  0.57130186  0.09114664     0.62200
H2272       H  0.54116977  0.65186876  0.10176559     0.12900
H2273       H  0.91805564  0.57569494  0.09325422     0.12900
C2274       C  0.89977589  0.65266561  0.10624461     0.62400
F2275       F  0.59604325  0.60111607  0.09428111    -0.22800
F2276       F  0.56771284  0.56120296  0.07892522    -0.20100
F2277       F  0.56855834  0.53259778  0.09781795    -0.19800
F2278       F  0.89221937  0.69419681  0.10111613    -0.19800
F2279       F  0.89895626  0.65684613  0.11885035    -0.20100
F2280       F  0.86507835  0.62457689  0.10285815    -0.22800
C2281       C  0.98378296  0.83829439  0.95175440    -0.05700
C2282       C  0.51849627  0.80444494  0.94892119     0.00300
C2283       C  0.54954718  0.81842856  0.93983308    -0.08300
C2284       C  0.54220401  0.85972995  0.93396684    -0.05700
C2285       C  0.50454656  0.88693503  0.93662458     0.00300
C2286       C  0.97792487  0.88008543  0.94605806    -0.08200
C2287       C  0.93709029  0.90859148  0.94953479     0.62200
H2288       H  0.95912972  0.82661536  0.95834343     0.12900
H2289       H  0.56645971  0.87161002  0.92731808     0.12900
C2290       C  0.59143940  0.79119553  0.93677427     0.62400
F2291       F  0.90795948  0.88604221  0.95727160    -0.22800
F2292       F  0.91352672  0.92012305  0.93923678    -0.20100
F2293       F  0.95027350  0.94715762  0.95552140    -0.19800
F2294       F  0.57961356  0.75025092  0.93184546    -0.22000
F2295       F  0.61603731  0.78450508  0.94728264    -0.20100
F2296       F  0.61874043  0.81259306  0.92832527    -0.22800
C2297       C  0.97550232  0.63105843  0.94600074    -0.05700
C2298       C  0.52271209  0.63887819  0.94983500     0.00300
C2299       C  0.56077846  0.61419766  0.94580215    -0.08300
C2300       C  0.55422706  0.57265341  0.93988240    -0.05700
C2301       C  0.51101190  0.55499514  0.93818977     0.00300
C2302       C  0.96827616  0.58903403  0.94046398    -0.08200
C2303       C  0.91993012  0.57660441  0.93789609     0.62200
H2304       H  0.94698962  0.65283509  0.94799543     0.12900
H2305       H  0.58284110  0.55360885  0.93645721     0.12900
C2306       C  0.60785838  0.63124967  0.94807014     0.62400
F2307       F  0.89428375  0.58268235  0.94840998    -0.22800
F2308       F  0.91505144  0.53256258  0.93426291    -0.20100
F2309       F  0.90337917  0.60427679  0.92886747    -0.19800
F2310       F  0.61456285  0.63541960  0.96052652    -0.19800
F2311       F  0.61336273  0.67263749  0.94266090    -0.20100
F2312       F  0.64033665  0.60238756  0.94333813    -0.22800
C2313       C  0.95989058  0.84968098  0.05185084    -0.05700
C2314       C  0.48551410  0.81289364  0.05319306     0.00300
C2315       C  0.52222109  0.82796347  0.06019342    -0.08300
C2316       C  0.51910831  0.87014917  0.06597966    -0.05700
C2317       C  0.48012813  0.89675939  0.06525724     0.00300
C2318       C  0.95540939  0.89205568  0.05750113    -0.08200
C2319       C  0.91156780  0.91817406  0.05645469     0.62200
H2320       H  0.93214846  0.83555174  0.04680825     0.12900
H2321       H  0.54708992  0.88271495  0.07120357     0.12900
C2322       C  0.56459725  0.79978477  0.06137885     0.62400
F2323       F  0.87882224  0.89335301  0.05064348    -0.22800
F2324       F  0.91858638  0.95669521  0.04975539    -0.20100
F2325       F  0.89528634  0.92997618  0.06791352    -0.19800
F2326       F  0.58324109  0.79189283  0.04992515    -0.19800
F2327       F  0.55433557  0.75924568  0.06678203    -0.20100
F2328       F  0.59650103  0.82081795  0.06849922    -0.22800
C2329       C  0.95844680  0.64516359  0.05727935    -0.05700
C2330       C  0.48531902  0.64777603  0.05152949     0.00300
C2331       C  0.52248355  0.61792488  0.05137686    -0.08300
C2332       C  0.51849174  0.57687145  0.05750117    -0.05700
C2333       C  0.47902124  0.56505362  0.06379379     0.00300
C2334       C  0.95365090  0.60325218  0.06298173    -0.08200
C2335       C  0.90606549  0.58812878  0.06588007     0.62200
H2336       H  0.92899919  0.66611764  0.05593767     0.12900
H2337       H  0.54655159  0.55359665  0.05752291     0.12900
C2338       C  0.56655962  0.62980168  0.04507690     0.62400
F2339       F  0.88566436  0.61864986  0.07375969    -0.22800
F2340       F  0.90400488  0.54609211  0.07109564    -0.20100
F2341       F  0.88187544  0.58671249  0.05514417    -0.19800
F2342       F  0.58262566  0.66964636  0.04982306    -0.19800
F2343       F  0.56014441  0.63437312  0.03264349    -0.20100
F2344       F  0.59905895  0.59701665  0.04670074    -0.22800
C2345       C  0.04419937  0.76090603  0.99430838    -0.05700
C2346       C  0.51268158  0.72470237  0.98804903     0.00300
C2347       C  0.48332917  0.69514187  0.99435345    -0.08300
C2348       C  0.47801647  0.70026898  0.00706710    -0.05700
C2349       C  0.50119394  0.73314210  0.01370499     0.00300
C2350       C  0.04255869  0.76596161  0.00712359    -0.08200
C2351       C  0.07504207  0.79774714  0.01334617     0.62200
H2352       H  0.06749169  0.78080146  0.98896615     0.12900
H2353       H  0.45571856  0.67803341  0.01200996     0.12900
C2354       C  0.45713344  0.65858210  0.98782498     0.62400
F2355       F  0.10618740  0.81506299  0.00517748    -0.22800
F2356       F  0.09837588  0.77514215  0.02231263    -0.20100
F2357       F  0.05174879  0.83340844  0.01855346    -0.19800
F2358       F  0.48631882  0.62532552  0.98375042    -0.19800
F2359       F  0.43432166  0.67643986  0.97800791    -0.20100
F2360       F  0.42571817  0.63872812  0.99546232    -0.22800
C2361       C  0.52362711  0.80815647  0.79274672    -0.05700
C2362       C  0.98642054  0.79634750  0.79283123     0.00300
C2363       C  0.95342378  0.80296469  0.78376595    -0.08300
C2364       C  0.95827569  0.83916592  0.77573660    -0.05700
C2365       C  0.49735133  0.84987891  0.77512356     0.00300
C2366       C  0.52960416  0.84368737  0.78447177    -0.08200
C2367       C  0.56995601  0.87423239  0.78583515     0.62200
H2368       H  0.54809516  0.80216065  0.79982633     0.12900
H2369       H  0.93366479  0.84440640  0.76864830     0.12900
C2370       C  0.91301591  0.77228357  0.78260657     0.62400
F2371       F  0.59429742  0.86451209  0.79622363    -0.22800
F2372       F  0.55585864  0.91844584  0.78670676    -0.20100
F2373       F  0.59839159  0.86900076  0.77583494    -0.19800
F2374       F  0.89213220  0.76763728  0.79388741    -0.19800
F2375       F  0.92656954  0.73060548  0.77831310    -0.20100
F2376       F  0.88163986  0.78912902  0.77454643    -0.22800
C2377       C  0.95418698  0.57696454  0.78444469    -0.05700
C2378       C  0.99467727  0.56694188  0.77818311     0.00300
C2379       C  0.53521775  0.56906162  0.78202617    -0.08300
C2380       C  0.53172153  0.60302623  0.79096017    -0.05700
C2381       C  0.99092105  0.63478952  0.79615568     0.00300
C2382       C  0.95170736  0.61071386  0.79343160    -0.08200
C2383       C  0.90729418  0.62210013  0.79969048     0.62200
H2384       H  0.92393434  0.55930121  0.78195474     0.12900
H2385       H  0.56139592  0.62079704  0.79390097     0.12900
C2386       C  0.58168787  0.55558912  0.77732616     0.62400
F2387       F  0.87324269  0.59372603  0.79603337    -0.22800
F2388       F  0.39563077  0.65291360  0.79484457    -0.20100
F2389       F  0.91184153  0.61826517  0.81222000    -0.19800
F2390       F  0.58670072  0.56817252  0.76523505    -0.19800
F2391       F  0.09037351  0.53211032  0.77806112    -0.20100
F2392       F  0.61551517  0.57596333  0.78391681    -0.22800
C2393       C  0.51340353  0.67815049  0.83931830    -0.05700
C2394       C  0.98880641  0.72584510  0.83379580     0.00300
C2395       C  0.96745353  0.76012234  0.84088054    -0.08300
C2396       C  0.97041716  0.75827216  0.85371888    -0.05700
C2397       C  0.99328908  0.72346846  0.85968342     0.00300
C2398       C  0.51652549  0.67817224  0.85214664    -0.08200
C2399       C  0.54348867  0.64092022  0.85816116     0.62200
H2400       H  0.53074191  0.65245210  0.83402774     0.12900
H2401       H  0.95459908  0.78423389  0.85926468     0.12900
C2402       C  0.94120415  0.79829780  0.83511922     0.62400
F2403       F  0.56590014  0.61416147  0.84965844    -0.22800
F2404       F  0.51500009  0.61337538  0.86474709    -0.20100
F2405       F  0.57534596  0.65914976  0.86582157    -0.19800
F2406       F  0.91038931  0.78150227  0.82690807    -0.19800
F2407       F  0.97052083  0.82680585  0.82915169    -0.20100
F2408       F  0.91761792  0.82332212  0.84378218    -0.22800
C2409       C  0.53567952  0.87444033  0.90374444    -0.05700
C2410       C  0.49554798  0.88863482  0.90946936     0.00300
C2411       C  0.95905189  0.87035497  0.90787502    -0.08300
C2412       C  0.96213442  0.82847958  0.90199051    -0.05700
C2413       C  0.50023026  0.80578430  0.89676425     0.00300
C2414       C  0.53898634  0.83278380  0.89764535    -0.08200
C2415       C  0.58406003  0.81637385  0.89275797     0.62200
H2416       H  0.56504157  0.89550078  0.90458961     0.12900
H2417       H  0.93179758  0.80930623  0.90046005     0.12900
C2418       C  0.91214987  0.88661854  0.91118404     0.62400
F2419       F  0.61770599  0.84747877  0.89464436    -0.22800
F2420       F  0.58140650  0.80803512  0.88033795    -0.20100
F2421       F  0.59592422  0.77723595  0.89866460    -0.19800
F2422       F  0.91123361  0.92927985  0.91605258    -0.19800
F2423       F  0.89315552  0.85758696  0.91956568    -0.20100
F2424       F  0.88614079  0.88692338  0.90076637    -0.22800
C2425       C  0.54040472  0.58311731  0.91076526    -0.05700
C2426       C  0.50105384  0.55718508  0.91107139     0.00300
C2427       C  0.95773208  0.57574899  0.90349464    -0.08300
C2428       C  0.96006769  0.61752107  0.89760757    -0.05700
C2429       C  0.50281989  0.64100435  0.89908353     0.00300
C2430       C  0.54191360  0.62505739  0.90490587    -0.08200
C2431       C  0.58528412  0.65158620  0.90453936     0.62200
H2432       H  0.57027073  0.56985244  0.91501067     0.12900
H2433       H  0.93293605  0.62809537  0.89172735     0.12900
C2434       C  0.91679299  0.54673660  0.90112356     0.62400
F2435       F  0.61984153  0.62955012  0.91044280    -0.22800
F2436       F  0.57879604  0.69266449  0.91022013    -0.20100
F2437       F  0.59839836  0.65834646  0.89251820    -0.19800
F2438       F  0.87935402  0.57313755  0.89890257    -0.19800
F2439       F  0.90636846  0.51979924  0.91094744    -0.20100
F2440       F  0.92490923  0.51997045  0.89096189    -0.22800
loop_ 
_geom_bond_atom_site_label_1 
_geom_bond_atom_site_label_2 
_geom_bond_distance 
_geom_bond_site_symmetry_2 
_ccdc_geom_bond_type 
C1            N2   1.361       .  A
C1         N1226   1.358       .  A
C1          C583   1.479       .  S
N2            C3   1.361       .  A
C3         N1224   1.357       .  A
C3          C599   1.480       .  S
N4            C5   1.355       .  A
N4         C1223   1.355       .  A
C5            N6   1.362       .  A
C5          C567   1.490       .  S
N6         C1221   1.360       .  A
C7            N8   1.367       .  A
C7           N12   1.360       .  A
C7          C564   1.494       .  S
N8            C9   1.359       .  A
C9           N10   1.351       .  A
C9          C551   1.470       .  S
N10          C11   1.350       .  A
C11          N12   1.357       .  A
C11         C532   1.470       .  S
C13          N14   1.356   1_655  A
C13          N18   1.358       .  A
C13         C500   1.474       .  S
N14          C15   1.359       .  A
C15          N16   1.356       .  A
C15         C519   1.490       .  S
N16          C17   1.357   1_455  A
C17          N18   1.359       .  A
C17         C484   1.473       .  S
C19          N20   1.359       .  A
C19          N24   1.358       .  A
C19         C452   1.480       .  S
N20          C21   1.358       .  A
C21          N22   1.356       .  A
C21         C468   1.473       .  S
N22          C23   1.357       .  A
C23          N24   1.359       .  A
C23         C516   1.489       .  S
C25          N26   1.357       .  A
C25          N30   1.356       .  A
C25         C423   1.476       .  S
N26          C27   1.359       .  A
C27          N28   1.360       .  A
C27         C436   1.473       .  S
N28          C29   1.361       .  A
C29          N30   1.355       .  A
C29         C404   1.492       .  S
C31          N32   1.361       .  A
C31          N36   1.366       .  A
C31         C407   1.494       .  S
N32          C33   1.357       .  A
C33          N34   1.348       .  A
C33         C388   1.469       .  S
N34          C35   1.350       .  A
C35          N36   1.360       .  A
C35         C372   1.472       .  S
C37         C439   1.485       .  S
C37          C38   1.417       .  A
C37          C42   1.406   1_545  A
C38         C503   1.487       .  S
C38          C39   1.401   1_545  A
C39         C650   1.402       .  A
C39          H44   1.083       .  S
C40         C487   1.487       .  S
C40          C41   1.418       .  A
C40         C649   1.402       .  A
C41         C420   1.490       .  S
C41         C652   1.404       .  A
C42         C651   1.406       .  A
C42          H43   1.083       .  S
C45         C471   1.486       .  S
C45          C46   1.418   1_455  A
C45          C50   1.402   1_545  A
C46         C596   1.497       .  S
C46          C47   1.409   1_545  A
C47         C658   1.409       .  A
C47          H52   1.084       .  S
C48         C580   1.488       .  S
C48          C49   1.417   1_655  A
C48         C657   1.402       .  A
C49         C455   1.490       .  S
C49         C660   1.409       .  A
C50         C659   1.403       .  A
C50          H51   1.083       .  S
In53         O55   2.239       .  S
In53         O64   2.266   1_565  S
In53        O666   2.229       .  S
In53       O1278   2.222   1_565  S
In53        O670   2.225       .  S
In53       O1891   2.245       .  S
In53       O1892   2.237       .  S
In53       O1285   2.236       .  S
C54         C535   1.486       .  S
C54          O62   1.259   1_655  A
C54        O1280   1.262       .  A
O55         C673   1.262       .  A
O56        In663   2.250       .  S
O56          C63   1.260       .  A
C57         C548   1.493       .  S
C57          O64   1.262       .  A
C57        O1278   1.257       .  A
O58       In1273   2.230   1_445  S
O58        C1277   1.258   1_455  A
C59         C356   1.488       .  S
C59          O61   1.263       .  A
C59         O675   1.259       .  A
O60        In663   2.227       .  S
O60        C1274   1.263       .  A
O61       In1883   2.247   1_455  S
O62       In1883   2.236   1_455  S
C63         C340   1.494       .  S
C63         O665   1.262       .  A
O65       In1273   2.229   1_455  S
O65         C669   1.258       .  A
In66         O73   2.230   1_455  S
In66         O74   2.229   1_545  S
In66         O75   2.232       .  S
In66       O1898   2.251   1_445  S
In66       O1289   2.229   1_455  S
In66        O687   2.235   1_445  S
In66        O681   2.239   1_545  S
In66        O688   2.225       .  S
C67         C391   1.474       .  S
C67          O73   1.261   1_455  A
C67          O75   1.260       .  A
O68       In1896   2.235       .  S
O68         C686   1.262       .  A
O69       In1286   2.237   1_545  S
O69          C76   1.260       .  A
C70         C375   1.476       .  S
C70          O77   1.260       .  A
C70          O71   1.262   1_655  A
O71        In676   2.236       .  S
C72         C324   1.483       .  S
C72          O74   1.260   1_545  A
C72         O688   1.263       .  A
C76         C311   1.482       .  S
C76         O678   1.262   1_545  A
O77        In676   2.236   1_655  S
O78        In676   2.231       .  S
O78         C682   1.261       .  A
C79          N80   1.357       .  A
C79          N84   1.361       .  A
C79         C292   1.477       .  S
N80          C81   1.358       .  A
C81          N82   1.358       .  A
C81         C279   1.483       .  S
N82          C83   1.358       .  A
C83          N84   1.363       .  A
C83         C260   1.492       .  S
C85          N86   1.361       .  A
C85          N90   1.365       .  A
C85         C263   1.490       .  S
N86          C87   1.356       .  A
C87          N88   1.348       .  A
C87         C327   1.462       .  S
N88          C89   1.350       .  A
C89          N90   1.359       .  A
C89         C308   1.472       .  S
C91          N92   1.360       .  A
C91          N96   1.360       .  A
C91         C244   1.481       .  S
N92          C93   1.358       .  A
C93          N94   1.357       .  A
C93         C231   1.475       .  S
N94          C95   1.359       .  A
C95          N96   1.360       .  A
C95         C212   1.484       .  S
C97          N98   1.357       .  A
C97         N102   1.360       .  A
C97         C196   1.473       .  S
N98          C99   1.357       .  A
C99         N100   1.356       .  A
C99         C180   1.472       .  S
N100        C101   1.356       .  A
C101        N102   1.360       .  A
C101        C215   1.484       .  S
C103        N104   1.363       .  A
C103        N108   1.366       .  A
C103        C164   1.488       .  S
N104        C105   1.359       .  A
C105        N106   1.350       .  A
C105        C359   1.473       .  S
N106        C107   1.350       .  A
C107        N108   1.361       .  A
C107        C343   1.472       .  S
C109        N110   1.357       .  A
C109        N114   1.359       .  A
C109        C132   1.476       .  S
N110        C111   1.358       .  A
C111        N112   1.360       .  A
C111        C148   1.479       .  S
N112        C113   1.361       .  A
C113        N114   1.360       .  A
C113        C167   1.487       .  S
C115        C199   1.487       .  S
C115        C116   1.417       .  A
C115        C120   1.400       .  A
C116        C151   1.488       .  S
C116        C117   1.404   1_455  A
C117       C1338   1.403       .  A
C117        H122   1.082       .  S
C118        C135   1.489       .  S
C118        C119   1.417       .  A
C118       C1337   1.400       .  A
C119        C183   1.485       .  S
C119       C1340   1.403       .  A
C120       C1339   1.401   1_455  A
C120        H121   1.083       .  S
C123        C295   1.490       .  S
C123        C124   1.419       .  A
C123        C128   1.408       .  A
C124        C247   1.496       .  S
C124        C125   1.406       .  A
C125       C1346   1.405   1_455  A
C125        H130   1.083       .  S
C126        C228   1.489       .  S
C126        C127   1.418       .  A
C126       C1345   1.404       .  A
C127        C276   1.492       .  S
C127       C1348   1.405       .  A
C128       C1347   1.408   1_455  A
C128        H129   1.083       .  S
C131        C132   1.402       .  A
C131        C136   1.411       .  A
C131        H138   1.083       .  S
C132        C133   1.413       .  A
C133        C134   1.406       .  A
C133        C140   1.517       .  S
C134        C135   1.403       .  A
C134        H139   1.082       .  S
C135        C136   1.420       .  A
C136        C747   1.521       .  S
C137        C746   1.520       .  S
C137        F143   1.382       .  S
C137        F751   1.381       .  S
C137        F752   1.385       .  S
C140        F144   1.383       .  S
C140        F146   1.384       .  S
C140        F755   1.383       .  S
F141        C747   1.381       .  S
F142        C747   1.384       .  S
F145        C750   1.383       .  S
C147        C148   1.404       .  A
C147        C152   1.410       .  A
C147        H154   1.083       .  S
C148        C149   1.416       .  A
C149        C150   1.405       .  A
C149        C156   1.519       .  S
C150        C151   1.402       .  A
C150        H155   1.080       .  S
C151        C152   1.419       .  A
C152        C153   1.522       .  S
C153        F157   1.384       .  S
C153        F158   1.383       .  S
C153        F769   1.382       .  S
C156        F160   1.382       .  S
C156        F771   1.383       .  S
C156        F772   1.384       .  S
F159        C763   1.381       .  S
F161        C766   1.383       .  S
F162        C766   1.385       .  S
C163        C168   1.406       .  A
C163        C774   1.400   1_545  A
C163        H170   1.083       .  S
C164        C165   1.420       .  A
C164        C773   1.405       .  A
C165        C166   1.409       .  A
C165        C172   1.520       .  S
C166        C167   1.403       .  A
C166        H171   1.083       .  S
C167        C778   1.419       .  A
C168        C777   1.422   1_545  A
C168        C169   1.521       .  S
C169        F173   1.385       .  S
C169        F174   1.384       .  S
C169        F175   1.382       .  S
C172        F176   1.382       .  S
C172        F177   1.383       .  S
C172        F178   1.385       .  S
C179        C180   1.401       .  A
C179        C184   1.406       .  A
C179        H186   1.083       .  S
C180        C791   1.415       .  A
C181        C790   1.416       .  A
C181        C792   1.405       .  A
C181        C188   1.519       .  S
C182        C183   1.402       .  A
C182        C791   1.403       .  A
C182        H797   1.080       .  S
C183        C184   1.419       .  A
C184        C185   1.521       .  S
C185        F189   1.381       .  S
C185        F191   1.383       .  S
C185        F800   1.385       .  S
H187        C792   1.081       .  S
C188        F192   1.383       .  S
C188        F803   1.385       .  S
C188        F804   1.382       .  S
F190        C795   1.384       .  S
F193        C798   1.385       .  S
F194        C798   1.382       .  S
C195        C196   1.401       .  A
C195        C200   1.408       .  A
C195        H202   1.083       .  S
C196        C197   1.413       .  A
C197        C198   1.405       .  A
C197        C814   1.517       .  S
C198        C199   1.404       .  A
C198        H813   1.081       .  S
C199        C200   1.418       .  A
C200        C201   1.520       .  S
C201        F205   1.385       .  S
C201        F207   1.381       .  S
C201        F816   1.382       .  S
H203        C808   1.080       .  S
C204        C807   1.518       .  S
C204        F208   1.383       .  S
C204        F819   1.384       .  S
C204        F820   1.385       .  S
F206        C811   1.381       .  S
F209        C814   1.383       .  S
F210        C814   1.385       .  S
C211        C212   1.403       .  A
C211        C216   1.407       .  A
C211        H828   1.083       .  S
C212        C213   1.419       .  A
C213        C214   1.409       .  A
C213        C220   1.518       .  S
C214        C215   1.404       .  A
C214        H219   1.083       .  S
C215        C216   1.421       .  A
C216        C217   1.521       .  S
C217        F221   1.385       .  S
C217        F222   1.383       .  S
C217        F833   1.383       .  S
H218        C821   1.081       .  S
C220        F224   1.382       .  S
C220        F835   1.385       .  S
C220        F836   1.384       .  S
F223        C827   1.384       .  S
F225        C830   1.385       .  S
F226        C830   1.383       .  S
C227        C228   1.403       .  A
C227        C232   1.406       .  A
C227        H234   1.083       .  S
C228        C229   1.417       .  A
C229        C230   1.410       .  A
C229        C236   1.516       .  S
C230        C231   1.402       .  A
C230        H235   1.083       .  S
C231        C232   1.413       .  A
C232        C233   1.517       .  S
C233        F239   1.383       .  S
C233        F847   1.385       .  S
C233        F848   1.383       .  S
C236        F241   1.378       .  S
C236        F242   1.385       .  S
C236        F850   1.382       .  S
F237        C843   1.385       .  S
F238        C843   1.381       .  S
F240        C846   1.379       .  S
C243        C244   1.402       .  A
C243        C248   1.410       .  A
C243        H250   1.083       .  S
C244        C855   1.415       .  A
C245        C246   1.406       .  A
C245        C854   1.416   1_565  A
C245        C252   1.519       .  S
C246        C857   1.404   1_565  A
C246        H251   1.081       .  S
C247        C248   1.421       .  A
C247        C856   1.406       .  A
C248        C249   1.521       .  S
C249        F253   1.381       .  S
C249        F255   1.384       .  S
C249        F864   1.379       .  S
C252        F256   1.383       .  S
C252        F867   1.382       .  S
C252        F868   1.385       .  S
F254        C859   1.379       .  S
F257        C862   1.383       .  S
F258        C862   1.384       .  S
C259        C264   1.408       .  A
C259        C870   1.404       .  A
C259        H266   1.082       .  S
C260        C261   1.423       .  A
C260        C869   1.405   1_545  A
C261        C262   1.408       .  A
C261        C268   1.520       .  S
C262        C263   1.404       .  A
C262        H267   1.083       .  S
C263        C874   1.422   1_545  A
C264        C873   1.419       .  A
C264        C265   1.520       .  S
C265        F269   1.385       .  S
C265        F270   1.384       .  S
C265        F271   1.382       .  S
C268        F272   1.383       .  S
C268        F273   1.383       .  S
C268        F274   1.385       .  S
C275        C280   1.408       .  A
C275        C886   1.407       .  A
C275        H282   1.082       .  S
C276        C277   1.423       .  A
C276        C885   1.405       .  A
C277        C278   1.407       .  A
C277        C284   1.521       .  S
C278        C889   1.402       .  A
C278        H283   1.085       .  S
C279        C280   1.416       .  A
C279        C888   1.402   1_545  A
C280        C281   1.519       .  S
C281        F285   1.384       .  S
C281        F286   1.383       .  S
C281        F897   1.384       .  S
C284        F289   1.380       .  S
C284        F290   1.383       .  S
C284        F898   1.384       .  S
F287        C891   1.383       .  S
F288        C894   1.384       .  S
C291        C292   1.400       .  A
C291        C296   1.409       .  A
C291        H298   1.085       .  S
C292        C903   1.412   1_545  A
C293        C294   1.406       .  A
C293        C902   1.413       .  A
C293        C300   1.517       .  S
C294        C295   1.403       .  A
C294        H299   1.083       .  S
C295        C906   1.421       .  A
C296        C905   1.421       .  A
C296        C297   1.517       .  S
C297        F301   1.383       .  S
C297        F302   1.380       .  S
C297        F913   1.383       .  S
C300        F305   1.382       .  S
C300        F306   1.384       .  S
C300        F914   1.383       .  S
F303        C907   1.385       .  S
F304        C910   1.384       .  S
C307        C308   1.402       .  A
C307        C312   1.404       .  A
C307        H314   1.084       .  S
C308        C919   1.412   1_545  A
C309        C310   1.403       .  A
C309        C918   1.410       .  A
C309        C316   1.518       .  S
C310        C921   1.407       .  A
C310        H315   1.083       .  S
C311        C312   1.420       .  A
C311        C920   1.407   1_545  A
C312        C313   1.521       .  S
C313        F317   1.385       .  S
C313        F318   1.383       .  S
C313        F319   1.383       .  S
C316        F320   1.384       .  S
C316        F321   1.383       .  S
C316        F322   1.384       .  S
C323        C324   1.408       .  A
C323        C328   1.401       .  A
C323        H330   1.083       .  S
C324        C325   1.424   1_545  A
C325        C326   1.406       .  A
C325        C332   1.521       .  S
C326        C327   1.398   1_565  A
C326        H331   1.084       .  S
C327        C328   1.409       .  A
C328        C329   1.518       .  S
C329        F335   1.383       .  S
C329        F943   1.385       .  S
C329        F944   1.383       .  S
C332        F337   1.383       .  S
C332        F338   1.385       .  S
C332        F946   1.384       .  S
F333        C939   1.384       .  S
F334        C939   1.383       .  S
F336        C942   1.383       .  S
C339        C950   1.403       .  A
C339        C954   1.408       .  A
C339        H346   1.083       .  S
C340        C341   1.426       .  A
C340        C949   1.408       .  A
C341        C342   1.412       .  A
C341        C348   1.519       .  S
C342        C343   1.399       .  A
C342        H347   1.083       .  S
C343        C344   1.411       .  A
C344        C949   1.405       .  A
C344        C955   1.519       .  S
C345        C954   1.518   1_545  S
C345        F351   1.383   1_545  S
C345        F959   1.385       .  S
C345        F960   1.383       .  S
C348        F352   1.383       .  S
C348        F354   1.385       .  S
C348        F963   1.384       .  S
F349        C955   1.384       .  S
F350        C955   1.382       .  S
F353        C958   1.382       .  S
C355        C360   1.403       .  A
C355        C966   1.408   1_545  A
C355        H362   1.083       .  S
C356        C357   1.424       .  A
C356        C965   1.409       .  A
C357        C358   1.405       .  A
C357        C364   1.522       .  S
C358        C359   1.399       .  A
C358        H363   1.083       .  S
C359        C970   1.412       .  A
C360        C969   1.409   1_545  A
C360        C361   1.518       .  S
C361        F365   1.385       .  S
C361        F366   1.383       .  S
C361        F367   1.383       .  S
C364        F368   1.383       .  S
C364        F369   1.384       .  S
C364        F370   1.384       .  S
C371        C376   1.405       .  A
C371       C1592   1.398       .  A
C371        H378   1.084       .  S
C372        C373   1.413   1_655  A
C372       C1591   1.403       .  A
C373        C374   1.406       .  A
C373        C380   1.517       .  S
C374        C375   1.405   1_455  A
C374        H379   1.083       .  S
C375       C1596   1.417       .  A
C376       C1595   1.424       .  A
C376        C377   1.521       .  S
C377        F381   1.385       .  S
C377        F382   1.383       .  S
C377        F383   1.383       .  S
C380        F384   1.383       .  S
C380        F385   1.383       .  S
C380        F386   1.384       .  S
C387        C388   1.400   1_455  A
C387        C392   1.406       .  A
C387        H394   1.083       .  S
C388       C1609   1.416       .  A
C389        C390   1.402       .  A
C389       C1608   1.409       .  A
C389        C396   1.518       .  S
C390       C1611   1.407       .  A
C390        H395   1.083       .  S
C391        C392   1.419       .  A
C391       C1610   1.402   1_455  A
C392        C393   1.519       .  S
C393        F397   1.385       .  S
C393        F398   1.384       .  S
C393        F399   1.383       .  S
C396        F400   1.382       .  S
C396        F401   1.384       .  S
C396        F402   1.384       .  S
C403        C404   1.405   1_455  A
C403        C408   1.409       .  A
C403        H410   1.083       .  S
C404       C1625   1.423       .  A
C405        C406   1.405       .  A
C405       C1624   1.419       .  A
C405        C412   1.521       .  S
C406       C1627   1.403       .  A
C406        H411   1.083       .  S
C407        C408   1.424   1_655  A
C407       C1626   1.405       .  A
C408        C409   1.522       .  S
C409        F413   1.385       .  S
C409        F414   1.383       .  S
C409        F415   1.384       .  S
C412        F416   1.384       .  S
C412        F417   1.382       .  S
C412        F418   1.385       .  S
C419        C420   1.404       .  A
C419        C424   1.405       .  A
C419        H426   1.080       .  S
C420        C421   1.419   1_655  A
C421        C422   1.405       .  A
C421        C428   1.517       .  S
C422        C423   1.401   1_455  A
C422        H427   1.083       .  S
C423        C424   1.415       .  A
C424        C425   1.516       .  S
C425        F429   1.385       .  S
C425        F430   1.383       .  S
C425       F1651   1.383       .  S
C428        F432   1.383       .  S
C428       F1653   1.385       .  S
C428       F1654   1.380       .  S
F431       C1645   1.383       .  S
F433       C1648   1.385       .  S
F434       C1648   1.381       .  S
C435        C436   1.401   1_455  A
C435        C440   1.408       .  A
C435        H442   1.083       .  S
C436       C1657   1.413       .  A
C437        C438   1.409       .  A
C437       C1656   1.414       .  A
C437        C444   1.516       .  S
C438       C1659   1.404       .  A
C438        H443   1.082       .  S
C439        C440   1.417   1_655  A
C439       C1658   1.402       .  A
C440        C441   1.518       .  S
C441        F445   1.384       .  S
C441        F446   1.379       .  S
C441        F447   1.382       .  S
C444        F448   1.382       .  S
C444        F449   1.383       .  S
C444        F450   1.385       .  S
C451        C456   1.408       .  A
C451       C1672   1.402       .  A
C451        H458   1.083       .  S
C452        C453   1.415       .  A
C452       C1671   1.401   1_455  A
C453        C454   1.408       .  A
C453        C460   1.518       .  S
C454        C455   1.407       .  A
C454        H459   1.082       .  S
C455       C1676   1.422   1_455  A
C456       C1675   1.422       .  A
C456        C457   1.521       .  S
C457        F461   1.385       .  S
C457        F462   1.378       .  S
C457        F463   1.380       .  S
C460        F464   1.381       .  S
C460        F465   1.384       .  S
C460        F466   1.384       .  S
C467        C472   1.405       .  A
C467       C1688   1.399       .  A
C467        H474   1.085       .  S
C468        C469   1.413       .  A
C468       C1687   1.400   1_455  A
C469        C470   1.407       .  A
C469        C476   1.516       .  S
C470        C471   1.405       .  A
C470        H475   1.083       .  S
C471       C1692   1.419   1_455  A
C472       C1691   1.420       .  A
C472        C473   1.517       .  S
C473        F477   1.384       .  S
C473        F478   1.380       .  S
C473        F479   1.383       .  S
C476        F480   1.383       .  S
C476        F481   1.383       .  S
C476        F482   1.385       .  S
C483        C488   1.406       .  A
C483       C1704   1.401       .  A
C483        H490   1.083       .  S
C484        C485   1.414   1_655  A
C484       C1703   1.401       .  A
C485        C486   1.405       .  A
C485        C492   1.518       .  S
C486        C487   1.404   1_455  A
C486        H491   1.082       .  S
C487       C1708   1.419       .  A
C488       C1707   1.420       .  A
C488        C489   1.521       .  S
C489        F493   1.385       .  S
C489        F494   1.381       .  S
C489        F495   1.383       .  S
C492        F496   1.384       .  S
C492        F497   1.382       .  S
C492        F498   1.384       .  S
C499        C504   1.407       .  A
C499       C1720   1.401       .  A
C499        H506   1.085       .  S
C500        C501   1.414   1_655  A
C500       C1719   1.400       .  A
C501        C502   1.407       .  A
C501        C508   1.518       .  S
C502        C503   1.404   1_455  A
C502        H507   1.082       .  S
C503       C1724   1.420       .  A
C504       C1723   1.420       .  A
C504        C505   1.518       .  S
C505        F509   1.382       .  S
C505        F510   1.382       .  S
C505        F511   1.384       .  S
C508        F512   1.383       .  S
C508        F513   1.382       .  S
C508        F514   1.384       .  S
C515        C520   1.408   1_556  A
C515       C1736   1.405       .  A
C515        H522   1.083       .  S
C516        C517   1.421   1_455  A
C516       C1735   1.406       .  A
C517        C518   1.405   1_556  A
C517        C524   1.521       .  S
C518        C519   1.405   1_655  A
C518        H523   1.083       .  S
C519       C1740   1.423       .  A
C520       C1739   1.422       .  A
C520        C521   1.522       .  S
C521        F525   1.385       .  S
C521        F526   1.384       .  S
C521        F527   1.383       .  S
C524        F528   1.383       .  S
C524        F529   1.384       .  S
C524        F530   1.385       .  S
C531        C536   1.408       .  A
C531       C1752   1.398   1_455  A
C531        H538   1.083       .  S
C532        C533   1.412       .  A
C532       C1751   1.399       .  A
C533        C534   1.400       .  A
C533        C540   1.517       .  S
C534       C1755   1.405       .  A
C534        H539   1.082       .  S
C535        C536   1.425   1_655  A
C535       C1754   1.405       .  A
C536        C537   1.520       .  S
C537        F541   1.385       .  S
C537        F542   1.383       .  S
C537        F543   1.383       .  S
C540        F544   1.384       .  S
C540        F545   1.380       .  S
C540        F546   1.385       .  S
C547        C548   1.411       .  A
C547        C552   1.409       .  A
C547        H554   1.082       .  S
C548       C1769   1.426       .  A
C549        C550   1.406       .  A
C549       C1768   1.424   1_455  A
C549        C556   1.521       .  S
C550       C1771   1.399   1_455  A
C550        H555   1.083       .  S
C551        C552   1.409       .  A
C551       C1770   1.397       .  A
C552        C553   1.518       .  S
C553        F557   1.384       .  S
C553        F559   1.383       .  S
C553       F1778   1.381       .  S
C556        F560   1.384       .  S
C556        F562   1.385       .  S
C556       F1781   1.383       .  S
F558       C1773   1.381       .  S
F561       C1776   1.384       .  S
C563        C568   1.407       .  A
C563       C1784   1.406   1_455  A
C563        H570   1.083       .  S
C564        C565   1.425       .  A
C564       C1783   1.405       .  A
C565        C566   1.409       .  A
C565        C572   1.521       .  S
C566        C567   1.404       .  A
C566        H571   1.083       .  S
C567       C1788   1.422       .  A
C568       C1787   1.419   1_455  A
C568        C569   1.521       .  S
C569        F573   1.385       .  S
C569        F574   1.383       .  S
C569        F575   1.384       .  S
C572        F576   1.383       .  S
C572        F577   1.383       .  S
C572        F578   1.385       .  S
C579        C580   1.403   1_455  A
C579        C584   1.407       .  A
C579        H586   1.083       .  S
C580       C1801   1.420       .  A
C581        C582   1.410       .  A
C581       C1800   1.421       .  A
C581        C588   1.518       .  S
C582       C1803   1.402       .  A
C582        H587   1.084       .  S
C583        C584   1.415   1_655  A
C583       C1802   1.402       .  A
C584        C585   1.518       .  S
C585        F589   1.384       .  S
C585        F590   1.383       .  S
C585        F591   1.383       .  S
C588        F592   1.380       .  S
C588        F593   1.383       .  S
C588        F594   1.384       .  S
C595        C596   1.406   1_455  A
C595        C600   1.407       .  A
C595        H602   1.082       .  S
C596       C1817   1.424       .  A
C597        C598   1.408       .  A
C597       C1816   1.424       .  A
C597        C604   1.520       .  S
C598       C1819   1.401       .  A
C598        H603   1.084       .  S
C599        C600   1.415   1_655  A
C599       C1818   1.401       .  A
C600        C601   1.517       .  S
C601        F605   1.385       .  S
C601        F606   1.379       .  S
C601        F607   1.383       .  S
C604        F608   1.384       .  S
C604        F609   1.378       .  S
C604        F610   1.383       .  S
C611        N612   1.359       .  A
C611       N1836   1.359   1_455  A
C611       C1193   1.473       .  S
N612        C613   1.358   1_455  A
C613       N1834   1.354       .  A
C613       C1209   1.475       .  S
N614       C1833   1.354       .  A
N614        C615   1.355       .  A
C615        N616   1.365       .  A
C615       C1177   1.496       .  S
N616       C1831   1.365       .  A
C617        N618   1.363       .  A
C617        N622   1.363       .  A
C617       C1174   1.490       .  S
N618        C619   1.356       .  A
C619        N620   1.349       .  A
C619       C1161   1.462       .  S
N620        C621   1.349       .  A
C621        N622   1.360       .  A
C621       C1142   1.473       .  S
C623        N624   1.356       .  A
C623        N628   1.360       .  A
C623       C1110   1.474       .  S
N624        C625   1.357       .  A
C625        N626   1.357       .  A
C625       C1129   1.482       .  S
N626        C627   1.358       .  A
C627        N628   1.361       .  A
C627       C1094   1.473   1_455  S
C629        N630   1.361       .  A
C629        N634   1.358       .  A
C629       C1062   1.480       .  S
N630        C631   1.361       .  A
C631        N632   1.359       .  A
C631       C1078   1.479       .  S
N632        C633   1.359       .  A
C633        N634   1.358       .  A
C633       C1126   1.487       .  S
C635        N636   1.358       .  A
C635        N640   1.353       .  A
C635       C1033   1.479       .  S
N636        C637   1.360       .  A
C637        N638   1.360       .  A
C637       C1046   1.474       .  S
N638        C639   1.363       .  A
C639        N640   1.354       .  A
C639       C1014   1.501   1_655  S
C641        N642   1.358       .  A
C641        N646   1.366       .  A
C641       C1017   1.499       .  S
N642        C643   1.355       .  A
C643        N644   1.349       .  A
C643        C998   1.465       .  S
N644        C645   1.352       .  A
C645        N646   1.360       .  A
C645        C982   1.471       .  S
C647       C1049   1.484       .  S
C647        C648   1.415       .  A
C647        C652   1.403       .  A
C648       C1113   1.484       .  S
C648        C649   1.402       .  A
C649        H654   1.083       .  S
C650       C1097   1.482       .  S
C650        C651   1.414       .  A
C651       C1030   1.491       .  S
C652        H653   1.083       .  S
C655       C1081   1.495       .  S
C655        C656   1.421   1_455  A
C655        C660   1.405       .  A
C656       C1206   1.489       .  S
C656        C657   1.405       .  A
C657        H662   1.083       .  S
C658       C1190   1.489       .  S
C658        C659   1.420   1_655  A
C659       C1065   1.495       .  S
C660        H661   1.084       .  S
In663       O665   2.243       .  S
In663       O674   2.235       .  S
In663      O1888   2.224       .  S
In663      O1281   2.223       .  S
In663      O1282   2.245       .  S
In663      O1895   2.235       .  S
C664       C1145   1.479       .  S
C664       O1890   1.262       .  A
C664        O672   1.261   1_655  A
O666        C673   1.259       .  A
C667       C1158   1.485       .  S
C667        O674   1.263       .  A
C667       O1888   1.259       .  A
O668      In1883   2.225   1_455  S
O668       C1887   1.258   1_455  A
C669        C966   1.484       .  S
C669        O671   1.261   1_565  A
O670       C1884   1.262       .  A
O671      In1273   2.237   1_445  S
O672      In1273   2.237   1_455  S
C673        C950   1.471       .  S
O675      In1883   2.217   1_455  S
In676      O1288   2.233   1_455  S
In676      O1899   2.238   1_455  S
In676       O683   2.240   1_455  S
In676       O684   2.239       .  S
In676       O685   2.237       .  S
C677       C1001   1.486       .  S
C677        O683   1.262   1_455  A
C677        O685   1.258       .  A
O678      In1286   2.234       .  S
O679      In1896   2.227       .  S
O679        C686   1.259       .  A
C680        C985   1.476       .  S
C680        O687   1.260   1_455  A
C680        O681   1.259       .  A
C682        C934   1.484       .  S
C682        O684   1.260       .  A
C686        C921   1.479       .  S
C689        N690   1.358       .  A
C689        N694   1.357       .  A
C689        C902   1.475       .  S
N690        C691   1.360       .  A
C691        N692   1.360       .  A
C691        C889   1.483       .  S
N692        C693   1.359       .  A
C693        N694   1.358       .  A
C693        C870   1.485       .  S
C695        N696   1.363       .  A
C695        N700   1.362       .  A
C695        C873   1.486       .  S
N696        C697   1.359       .  A
C697        N698   1.350       .  A
C697        C937   1.475       .  S
N698        C699   1.348       .  A
C699        N700   1.356       .  A
C699        C918   1.464       .  S
C701        N702   1.359       .  A
C701        N706   1.357       .  A
C701        C854   1.479       .  S
N702        C703   1.360       .  A
C703        N704   1.359       .  A
C703        C841   1.482   1_545  S
N704        C705   1.360       .  A
C705        N706   1.356       .  A
C705        C822   1.487       .  S
C707        N708   1.356       .  A
C707        N712   1.357       .  A
C707        C806   1.469       .  S
N708        C709   1.356       .  A
C709        N710   1.357       .  A
C709        C790   1.472       .  S
N710        C711   1.357       .  A
C711        N712   1.360       .  A
C711        C825   1.486       .  S
C713        N714   1.358       .  A
C713        N718   1.363       .  A
C713        C774   1.476       .  S
N714        C715   1.354       .  A
C715        N716   1.349       .  A
C715        C969   1.461       .  S
N716        C717   1.353       .  A
C717        N718   1.360       .  A
C717        C953   1.483       .  S
C719        N720   1.356       .  A
C719        N724   1.355   1_545  A
C719        C742   1.472       .  S
N720        C721   1.357       .  A
C721        N722   1.360   1_545  A
C721        C758   1.474       .  S
N722        C723   1.361       .  A
C723        N724   1.356       .  A
C723        C777   1.483       .  S
C725        C809   1.487       .  S
C725        C726   1.418       .  A
C725        C730   1.401       .  A
C726        C761   1.488       .  S
C726        C727   1.402       .  A
C727       C1948   1.401   1_455  A
C727        H732   1.082       .  S
C728        C745   1.491       .  S
C728       C1947   1.400       .  A
C728        C729   1.415       .  A
C729        C793   1.482       .  S
C729       C1950   1.403       .  A
C730       C1949   1.401   1_455  A
C730        H731   1.082       .  S
C733        C905   1.491       .  S
C733        C734   1.419       .  A
C733        C738   1.405       .  A
C734        C857   1.491       .  S
C734        C735   1.405   1_545  A
C735       C1956   1.405   1_455  A
C735        H740   1.083       .  S
C736        C838   1.493       .  S
C736       C1955   1.406       .  A
C736        C737   1.421   1_565  A
C737        C886   1.493       .  S
C737       C1958   1.409       .  A
C738       C1957   1.406   1_455  A
C738        H739   1.084       .  S
C741        C742   1.401       .  A
C741        C746   1.407       .  A
C741        H748   1.084       .  S
C742        C743   1.413   1_545  A
C743        C744   1.406       .  A
C743        C750   1.518       .  S
C744        C745   1.406   1_565  A
C744        H749   1.080       .  S
C745        C746   1.419       .  A
C747        F753   1.382       .  S
C750        F754   1.383       .  S
C750        F756   1.385       .  S
C757        C758   1.401   1_565  A
C757        C762   1.409       .  A
C757        H764   1.083       .  S
C758        C759   1.414       .  A
C759        C760   1.403       .  A
C759        C766   1.518       .  S
C760        C761   1.402       .  A
C760        H765   1.079       .  S
C761        C762   1.421   1_545  A
C762        C763   1.522       .  S
C763        F767   1.385       .  S
C763        F768   1.381       .  S
C766        F770   1.382       .  S
C773        C778   1.411       .  A
C773        H780   1.083       .  S
C774        C775   1.417       .  A
C775        C776   1.407       .  A
C775        C782   1.520       .  S
C776        C777   1.404       .  A
C776        H781   1.083       .  S
C778        C779   1.519       .  S
C779        F783   1.384       .  S
C779        F784   1.384       .  S
C779        F785   1.382       .  S
C782        F786   1.382       .  S
C782        F787   1.384       .  S
C782        F788   1.385       .  S
C789        C790   1.401   1_565  A
C789        C794   1.404       .  A
C789        H796   1.083       .  S
C791        C798   1.519       .  S
C792        C793   1.404       .  A
C793        C794   1.418   1_545  A
C794        C795   1.522       .  S
C795        F799   1.381       .  S
C795        F801   1.383       .  S
C798        F802   1.383       .  S
C805        C806   1.400       .  A
C805        C810   1.408       .  A
C805        H812   1.083       .  S
C806        C807   1.411   1_545  A
C807        C808   1.405       .  A
C808        C809   1.404   1_565  A
C809        C810   1.420       .  A
C810        C811   1.520       .  S
C811        F815   1.385       .  S
C811        F817   1.381       .  S
C814        F818   1.382       .  S
C821        C822   1.403       .  A
C821        C826   1.406       .  A
C822        C823   1.421   1_545  A
C823        C824   1.408       .  A
C823        C830   1.520       .  S
C824        C825   1.405   1_565  A
C824        H829   1.083       .  S
C825        C826   1.420       .  A
C826        C827   1.521       .  S
C827        F831   1.385       .  S
C827        F832   1.382       .  S
C830        F834   1.383       .  S
C837        C838   1.405   1_545  A
C837        C842   1.406       .  A
C837        H844   1.083       .  S
C838        C839   1.421       .  A
C839        C840   1.407       .  A
C839        C846   1.515       .  S
C840        C841   1.403       .  A
C840        H845   1.085       .  S
C841        C842   1.418   1_565  A
C842        C843   1.518       .  S
C843        F849   1.383       .  S
C846        F851   1.383       .  S
C846        F852   1.384       .  S
C853        C854   1.403       .  A
C853        C858   1.407       .  A
C853        H860   1.084       .  S
C855        C856   1.408       .  A
C855        C862   1.519       .  S
C856        H861   1.081       .  S
C857        C858   1.420       .  A
C858        C859   1.520       .  S
C859        F863   1.382       .  S
C859        F865   1.385       .  S
C862        F866   1.384       .  S
C869        C874   1.410       .  A
C869        H876   1.083       .  S
C870        C871   1.418       .  A
C871        C872   1.408       .  A
C871        C878   1.520       .  S
C872        C873   1.406       .  A
C872        H877   1.083       .  S
C874        C875   1.521       .  S
C875        F879   1.385       .  S
C875        F880   1.384       .  S
C875        F881   1.382       .  S
C878        F882   1.382       .  S
C878        F883   1.384       .  S
C878        F884   1.385       .  S
C885        C890   1.408       .  A
C885        H892   1.080       .  S
C886        C887   1.424   1_545  A
C887        C888   1.406       .  A
C887        C894   1.522       .  S
C888        H893   1.085       .  S
C889        C890   1.416       .  A
C890        C891   1.519       .  S
C891        F895   1.385       .  S
C891        F896   1.382       .  S
C894        F899   1.379       .  S
C894        F900   1.383       .  S
C901        C902   1.400       .  A
C901        C906   1.408       .  A
C901        H908   1.085       .  S
C903        C904   1.408       .  A
C903        C910   1.517       .  S
C904        C905   1.406   1_565  A
C904        H909   1.083       .  S
C906        C907   1.515       .  S
C907        F911   1.383       .  S
C907        F912   1.381       .  S
C910        F915   1.383       .  S
C910        F916   1.384       .  S
C917        C918   1.399       .  A
C917        C922   1.405       .  A
C917        H924   1.084       .  S
C919        C920   1.406       .  A
C919        C926   1.517       .  S
C920        H925   1.083       .  S
C921        C922   1.421       .  A
C922        C923   1.520       .  S
C923        F927   1.385       .  S
C923        F928   1.384       .  S
C923        F929   1.383       .  S
C926        F930   1.383       .  S
C926        F931   1.382       .  S
C926        F932   1.385       .  S
C933        C934   1.408       .  A
C933        C938   1.406       .  A
C933        H940   1.082       .  S
C934        C935   1.420       .  A
C935        C936   1.405       .  A
C935        C942   1.521       .  S
C936        C937   1.404       .  A
C936        H941   1.083       .  S
C937        C938   1.413       .  A
C938        C939   1.518       .  S
C939        F945   1.382       .  S
C942        F947   1.383       .  S
C942        F948   1.385       .  S
C949        H956   1.082       .  S
C950        C951   1.412       .  A
C951        C952   1.402       .  A
C951        C958   1.521       .  S
C952        C953   1.408       .  A
C952        H957   1.083       .  S
C953        C954   1.418       .  A
C955        F961   1.384       .  S
C958        F962   1.384       .  S
C958        F964   1.385       .  S
C965        C970   1.408       .  A
C965        H972   1.083       .  S
C966        C967   1.425       .  A
C967        C968   1.404       .  A
C967        C974   1.520       .  S
C968        C969   1.396       .  A
C968        H973   1.084       .  S
C970        C971   1.518       .  S
C971        F975   1.383       .  S
C971        F976   1.383       .  S
C971        F977   1.384       .  S
C974        F978   1.383       .  S
C974        F979   1.383       .  S
C974        F980   1.385       .  S
C981       C2202   1.408       .  A
C981        C986   1.405       .  A
C981        H988   1.083       .  S
C982       C2201   1.403       .  A
C982        C983   1.418       .  A
C983        C984   1.401       .  A
C983        C990   1.519       .  S
C984        C985   1.401       .  A
C984        H989   1.085       .  S
C985       C2206   1.418       .  A
C986       C2205   1.416       .  A
C986        C987   1.520       .  S
C987        F991   1.385       .  S
C987        F992   1.383       .  S
C987        F993   1.383       .  S
C990        F994   1.382       .  S
C990        F995   1.383       .  S
C990        F996   1.384       .  S
C997        C998   1.398       .  A
C997       C1002   1.406       .  A
C997       H1004   1.084       .  S
C998       C2219   1.410   1_455  A
C999       C2218   1.411       .  A
C999       C1000   1.403       .  A
C999       C1006   1.520       .  S
C1000      C2221   1.408       .  A
C1000      H1005   1.083       .  S
C1001      C2220   1.408   1_455  A
C1001      C1002   1.424       .  A
C1002      C1003   1.520       .  S
C1003      F1007   1.385       .  S
C1003      F1008   1.383       .  S
C1003      F1009   1.383       .  S
C1006      F1010   1.381       .  S
C1006      F1011   1.383       .  S
C1006      F1012   1.384       .  S
C1013      C1014   1.407       .  A
C1013      C1018   1.410       .  A
C1013      H1020   1.082       .  S
C1014      C2235   1.427       .  A
C1015      C2234   1.424       .  A
C1015      C1016   1.406       .  A
C1015      C1022   1.522       .  S
C1016      C2237   1.404       .  A
C1016      H1021   1.082       .  S
C1017      C2236   1.405       .  A
C1017      C1018   1.426       .  A
C1018      C1019   1.523       .  S
C1019      F1023   1.385       .  S
C1019      F1024   1.383       .  S
C1019      F1025   1.384       .  S
C1022      F1026   1.383       .  S
C1022      F1027   1.383       .  S
C1022      F1028   1.385       .  S
C1029      C1030   1.405       .  A
C1029      C1034   1.407       .  A
C1029      H1036   1.079       .  S
C1030      C1031   1.420   1_655  A
C1031      C1032   1.406       .  A
C1031      C1038   1.519       .  S
C1032      C1033   1.402   1_455  A
C1032      H1037   1.085       .  S
C1033      C1034   1.414       .  A
C1034      C1035   1.517       .  S
C1035      F1039   1.384       .  S
C1035      F1040   1.384       .  S
C1035      F2261   1.382       .  S
C1038      F1042   1.380       .  S
C1038      F2263   1.384       .  S
C1038      F2264   1.383       .  S
F1041      C2255   1.382       .  S
F1043      C2258   1.384       .  S
F1044      C2258   1.383       .  S
C1045      C1046   1.400   1_455  A
C1045      C1050   1.405       .  A
C1045      H1052   1.083       .  S
C1046      C2267   1.414       .  A
C1047      C2266   1.414       .  A
C1047      C1048   1.410       .  A
C1047      C1054   1.516       .  S
C1048      C2269   1.405       .  A
C1048      H1053   1.082       .  S
C1049      C2268   1.403       .  A
C1049      C1050   1.416   1_655  A
C1050      C1051   1.518       .  S
C1051      F1055   1.384       .  S
C1051      F1056   1.377       .  S
C1051      F1057   1.379       .  S
C1054      F1058   1.383       .  S
C1054      F1059   1.383       .  S
C1054      F1060   1.385       .  S
C1061      C2282   1.403       .  A
C1061      C1066   1.407       .  A
C1061      H1068   1.085       .  S
C1062      C2281   1.401   1_455  A
C1062      C1063   1.414       .  A
C1063      C1064   1.410       .  A
C1063      C1070   1.517       .  S
C1064      C1065   1.407       .  A
C1064      H1069   1.082       .  S
C1065      C2286   1.423   1_455  A
C1066      C2285   1.424       .  A
C1066      C1067   1.521       .  S
C1067      F1071   1.384       .  S
C1067      F1072   1.378       .  S
C1067      F1073   1.383       .  S
C1070      F1074   1.381       .  S
C1070      F1075   1.384       .  S
C1070      F1076   1.385       .  S
C1077      C2298   1.400       .  A
C1077      C1082   1.404       .  A
C1077      H1084   1.085       .  S
C1078      C2297   1.400   1_455  A
C1078      C1079   1.413       .  A
C1079      C1080   1.411       .  A
C1079      C1086   1.516       .  S
C1080      C1081   1.407       .  A
C1080      H1085   1.083       .  S
C1081      C2302   1.421   1_455  A
C1082      C2301   1.420       .  A
C1082      C1083   1.517       .  S
C1083      F1087   1.384       .  S
C1083      F1088   1.379       .  S
C1083      F1089   1.383       .  S
C1086      F1090   1.383       .  S
C1086      F1091   1.383       .  S
C1086      F1092   1.384       .  S
C1093      C2314   1.401       .  A
C1093      C1098   1.409       .  A
C1093      H1100   1.083       .  S
C1094      C2313   1.403       .  A
C1094      C1095   1.414   1_655  A
C1095      C1096   1.404       .  A
C1095      C1102   1.517       .  S
C1096      C1097   1.402   1_455  A
C1096      H1101   1.083       .  S
C1097      C2318   1.417       .  A
C1098      C2317   1.418       .  A
C1098      C1099   1.520       .  S
C1099      F1103   1.384       .  S
C1099      F1104   1.381       .  S
C1099      F1105   1.381       .  S
C1102      F1106   1.383       .  S
C1102      F1107   1.382       .  S
C1102      F1108   1.385       .  S
C1109      C2330   1.402       .  A
C1109      C1114   1.407       .  A
C1109      H1116   1.085       .  S
C1110      C2329   1.401   1_455  A
C1110      C1111   1.414       .  A
C1111      C1112   1.404       .  A
C1111      C1118   1.518       .  S
C1112      C1113   1.402   1_455  A
C1112      H1117   1.082       .  S
C1113      C2334   1.421       .  A
C1114      C2333   1.419       .  A
C1114      C1115   1.518       .  S
C1115      F1119   1.383       .  S
C1115      F1120   1.381       .  S
C1115      F1121   1.384       .  S
C1118      F1122   1.383       .  S
C1118      F1123   1.382       .  S
C1118      F1124   1.385       .  S
C1125      C2346   1.404       .  A
C1125      C1130   1.408   1_556  A
C1125      H1132   1.083       .  S
C1126      C2345   1.406       .  A
C1126      C1127   1.420   1_455  A
C1127      C1128   1.407   1_556  A
C1127      C1134   1.520       .  S
C1128      C1129   1.403   1_655  A
C1128      H1133   1.083       .  S
C1129      C2350   1.418       .  A
C1130      C2349   1.420       .  A
C1130      C1131   1.519       .  S
C1131      F1135   1.385       .  S
C1131      F1136   1.383       .  S
C1131      F1137   1.382       .  S
C1134      F1138   1.382       .  S
C1134      F1139   1.383       .  S
C1134      F1140   1.385       .  S
C1141      C2362   1.400   1_455  A
C1141      C1146   1.407       .  A
C1141      H1148   1.083       .  S
C1142      C2361   1.400       .  A
C1142      C1143   1.417       .  A
C1143      C1144   1.402       .  A
C1143      C1150   1.520       .  S
C1144      C2365   1.403       .  A
C1144      H1149   1.083       .  S
C1145      C2364   1.403       .  A
C1145      C1146   1.420   1_655  A
C1146      C1147   1.519       .  S
C1147      F1151   1.385       .  S
C1147      F1152   1.383       .  S
C1147      F1153   1.383       .  S
C1150      F1154   1.383       .  S
C1150      F1155   1.382       .  S
C1150      F1156   1.385       .  S
C1157      C1158   1.408       .  A
C1157      C1162   1.403       .  A
C1157      H1164   1.082       .  S
C1158      C2379   1.425       .  A
C1159      C2378   1.425   1_455  A
C1159      C1160   1.405       .  A
C1159      C1166   1.521       .  S
C1160      C2381   1.397   1_455  A
C1160      H1165   1.083       .  S
C1161      C2380   1.398       .  A
C1161      C1162   1.408       .  A
C1162      C1163   1.518       .  S
C1163      F1167   1.384       .  S
C1163      F2388   1.382       .  S
C1163      F1169   1.383       .  S
C1166      F1170   1.383       .  S
C1166      F2391   1.384       .  S
C1166      F1172   1.385       .  S
F1168      C2383   1.383       .  S
F1171      C2386   1.383       .  S
C1173      C2394   1.405   1_455  A
C1173      C1178   1.403       .  A
C1173      H1180   1.082       .  S
C1174      C2393   1.402       .  A
C1174      C1175   1.419       .  A
C1175      C1176   1.412       .  A
C1175      C1182   1.520       .  S
C1176      C1177   1.408       .  A
C1176      H1181   1.083       .  S
C1177      C2398   1.426       .  A
C1178      C2397   1.421   1_455  A
C1178      C1179   1.523       .  S
C1179      F1183   1.385       .  S
C1179      F1184   1.383       .  S
C1179      F1185   1.383       .  S
C1182      F1186   1.385       .  S
C1182      F1187   1.382       .  S
C1182      F1188   1.384       .  S
C1189      C1190   1.407   1_455  A
C1189      C1194   1.410       .  A
C1189      H1196   1.083       .  S
C1190      C2411   1.420       .  A
C1191      C2410   1.420       .  A
C1191      C1192   1.407       .  A
C1191      C1198   1.518       .  S
C1192      C2413   1.402       .  A
C1192      H1197   1.085       .  S
C1193      C2412   1.397   1_455  A
C1193      C1194   1.413       .  A
C1194      C1195   1.517       .  S
C1195      F1199   1.384       .  S
C1195      F1200   1.383       .  S
C1195      F1201   1.383       .  S
C1198      F1202   1.380       .  S
C1198      F1203   1.383       .  S
C1198      F1204   1.383       .  S
C1205      C1206   1.404   1_455  A
C1205      C1210   1.403       .  A
C1205      H1212   1.081       .  S
C1206      C2427   1.423       .  A
C1207      C2426   1.421       .  A
C1207      C1208   1.407       .  A
C1207      C1214   1.520       .  S
C1208      C2429   1.399       .  A
C1208      H1213   1.083       .  S
C1209      C2428   1.402       .  A
C1209      C1210   1.413   1_655  A
C1210      C1211   1.517       .  S
C1211      F1215   1.385       .  S
C1211      F1216   1.381       .  S
C1211      F1217   1.383       .  S
C1214      F1218   1.385       .  S
C1214      F1219   1.379       .  S
C1214      F1220   1.381       .  S
C1221      N1222   1.361       .  A
C1221      C1803   1.480       .  S
N1222      C1223   1.361       .  A
C1223      C1819   1.481       .  S
N1224      C1225   1.358       .  A
C1225      N1226   1.359       .  A
C1225      C1787   1.486       .  S
C1227      N1228   1.364       .  A
C1227      N1232   1.363       .  A
C1227      C1784   1.491       .  S
N1228      C1229   1.357       .  A
C1229      N1230   1.350       .  A
C1229      C1771   1.465       .  S
N1230      C1231   1.350       .  A
C1231      N1232   1.359       .  A
C1231      C1752   1.468       .  S
C1233      N1234   1.359       .  A
C1233      N1238   1.359       .  A
C1233      C1720   1.476       .  S
N1234      C1235   1.360       .  A
C1235      N1236   1.355       .  A
C1235      C1739   1.489       .  S
N1236      C1237   1.356       .  A
C1237      N1238   1.359       .  A
C1237      C1704   1.474       .  S
C1239      N1240   1.360       .  A
C1239      N1244   1.360       .  A
C1239      C1672   1.484       .  S
N1240      C1241   1.359       .  A
C1241      N1242   1.356       .  A
C1241      C1688   1.474       .  S
N1242      C1243   1.357       .  A
C1243      N1244   1.361       .  A
C1243      C1736   1.491       .  S
C1245      N1246   1.359       .  A
C1245      N1250   1.355       .  A
C1245      C1643   1.480       .  S
N1246      C1247   1.361       .  A
C1247      N1248   1.359       .  A
C1247      C1656   1.474       .  S
N1248      C1249   1.360       .  A
C1249      N1250   1.354       .  A
C1249      C1624   1.481       .  S
C1251      N1252   1.360       .  A
C1251      N1256   1.365       .  A
C1251      C1627   1.484       .  S
N1252      C1253   1.355       .  A
C1253      N1254   1.348       .  A
C1253      C1608   1.461       .  S
N1254      C1255   1.349       .  A
C1255      N1256   1.358       .  A
C1255      C1592   1.465       .  S
C1257      C1659   1.488       .  S
C1257      C1258   1.419       .  A
C1257      C1262   1.405   1_545  A
C1258      C1723   1.489       .  S
C1258      C1259   1.405   1_545  A
C1259      C1870   1.404       .  A
C1259      H1264   1.083       .  S
C1260      C1707   1.489       .  S
C1260      C1869   1.401       .  A
C1260      C1261   1.417       .  A
C1261      C1640   1.491       .  S
C1261      C1872   1.406       .  A
C1262      C1871   1.406       .  A
C1262      H1263   1.084       .  S
C1265      C1691   1.488       .  S
C1265      C1266   1.419       .  A
C1265      C1270   1.404   1_545  A
C1266      C1816   1.495       .  S
C1266      C1267   1.406   1_545  A
C1267      C1878   1.405       .  A
C1267      H1272   1.085       .  S
C1268      C1800   1.489       .  S
C1268      C1877   1.405       .  A
C1268      C1269   1.420       .  A
C1269      C1675   1.495       .  S
C1269      C1880   1.406       .  A
C1270      C1879   1.406       .  A
C1270      H1271   1.085       .  S
In1273     O1275   2.244   1_565  S
In1273     O1886   2.220       .  S
In1273     O1284   2.239   1_565  S
In1273     O1890   2.229       .  S
C1274      C1755   1.486       .  S
C1274      O1282   1.259       .  A
O1275      C1893   1.262   1_545  A
O1276     In1883   2.239       .  S
O1276      C1283   1.259       .  A
C1277      C1768   1.485       .  S
C1277      O1284   1.262       .  A
C1279      C1576   1.484       .  S
C1279      O1281   1.261       .  A
C1279      O1895   1.260       .  A
O1280     In1883   2.236       .  S
C1283      C1560   1.488       .  S
C1283      O1885   1.263       .  A
O1285      C1889   1.258       .  A
In1286     O1907   2.253       .  S
In1286     O1901   2.248       .  S
In1286     O1293   2.228   1_565  S
In1286     O1294   2.252       .  S
In1286     O1295   2.231   1_565  S
In1286     O1908   2.237   1_565  S
C1287      C1611   1.481       .  S
C1287      O1293   1.263       .  A
C1287      O1295   1.261       .  A
O1288      C1906   1.262       .  A
O1289      C1296   1.259       .  A
C1290      C1595   1.487       .  S
C1290      O1297   1.260       .  A
C1290      O1291   1.262       .  A
O1291     In1896   2.237       .  S
C1292      C1544   1.488       .  S
C1292      O1294   1.259       .  A
C1292      O1908   1.259   1_565  A
C1296      C1531   1.478       .  S
C1296      O1898   1.263   1_545  A
O1297     In1896   2.224       .  S
O1298     In1896   2.233       .  S
O1298      C1902   1.260       .  A
C1299      N1300   1.361       .  A
C1299      N1304   1.361       .  A
C1299      C1512   1.483       .  S
N1300      C1301   1.360       .  A
C1301      N1302   1.359       .  A
C1301      C1499   1.480       .  S
N1302      C1303   1.358       .  A
C1303      N1304   1.363       .  A
C1303      C1480   1.494       .  S
C1305      N1306   1.363       .  A
C1305      N1310   1.369       .  A
C1305      C1483   1.498       .  S
N1306      C1307   1.357       .  A
C1307      N1308   1.346       .  A
C1307      C1547   1.468       .  S
N1308      C1309   1.349       .  A
C1309      N1310   1.365       .  A
C1309      C1528   1.476       .  S
C1311      N1312   1.361       .  A
C1311      N1316   1.358       .  A
C1311      C1464   1.481       .  S
N1312      C1313   1.360       .  A
C1313      N1314   1.358       .  A
C1313      C1451   1.476       .  S
N1314      C1315   1.359       .  A
C1315      N1316   1.358       .  A
C1315      C1432   1.478       .  S
C1317      N1318   1.358       .  A
C1317      N1322   1.359       .  A
C1317      C1416   1.474       .  S
N1318      C1319   1.357       .  A
C1319      N1320   1.356       .  A
C1319      C1400   1.470       .  S
N1320      C1321   1.356       .  A
C1321      N1322   1.360       .  A
C1321      C1435   1.478       .  S
C1323      N1324   1.361       .  A
C1323      N1328   1.365       .  A
C1323      C1384   1.488       .  S
N1324      C1325   1.357       .  A
C1325      N1326   1.350       .  A
C1325      C1579   1.467       .  S
N1326      C1327   1.350       .  A
C1327      N1328   1.358       .  A
C1327      C1563   1.468       .  S
C1329      N1330   1.355       .  A
C1329      N1334   1.357       .  A
C1329      C1352   1.471       .  S
N1330      C1331   1.356       .  A
C1331      N1332   1.358       .  A
C1331      C1368   1.474       .  S
N1332      C1333   1.359       .  A
C1333      N1334   1.358       .  A
C1333      C1387   1.485       .  S
C1335      C1419   1.491       .  S
C1335      C1336   1.417       .  A
C1335      C1340   1.402       .  A
C1336      C1371   1.484       .  S
C1336      C1337   1.402       .  A
C1337      H1342   1.083       .  S
C1338      C1355   1.489       .  S
C1338      C1339   1.416       .  A
C1339      C1403   1.484       .  S
C1340      H1341   1.082       .  S
C1343      C1515   1.493       .  S
C1343      C1344   1.420       .  A
C1343      C1348   1.406       .  A
C1344      C1467   1.490       .  S
C1344      C1345   1.407       .  A
C1345      H1350   1.085       .  S
C1346      C1448   1.489       .  S
C1346      C1347   1.419       .  A
C1347      C1496   1.498       .  S
C1348      H1349   1.085       .  S
C1351      C1352   1.403       .  A
C1351      C1356   1.411       .  A
C1351      H1358   1.083       .  S
C1352      C1353   1.411       .  A
C1353      C1354   1.402       .  A
C1353      C1360   1.518       .  S
C1354      C1355   1.403       .  A
C1354      H1359   1.078       .  S
C1355      C1356   1.419       .  A
C1356      C1967   1.520       .  S
C1357      C1966   1.520       .  S
C1357      F1971   1.381       .  S
C1357      F1972   1.385       .  S
C1357      F1363   1.383       .  S
C1360      F1364   1.383       .  S
C1360      F1975   1.383       .  S
C1360      F1366   1.384       .  S
F1361      C1967   1.381       .  S
F1362      C1967   1.385       .  S
F1365      C1970   1.383       .  S
C1367      C1368   1.403       .  A
C1367      C1372   1.407       .  A
C1367      H1374   1.083       .  S
C1368      C1369   1.415       .  A
C1369      C1370   1.403       .  A
C1369      C1376   1.519       .  S
C1370      C1371   1.401       .  A
C1370      H1375   1.080       .  S
C1371      C1372   1.419       .  A
C1372      C1373   1.522       .  S
C1373      F1377   1.384       .  S
C1373      F1378   1.383       .  S
C1373      F1989   1.381       .  S
C1376      F1380   1.382       .  S
C1376      F1991   1.384       .  S
C1376      F1992   1.384       .  S
F1379      C1983   1.380       .  S
F1381      C1986   1.383       .  S
F1382      C1986   1.385       .  S
C1383      C1994   1.402   1_545  A
C1383      C1388   1.407       .  A
C1383      H1390   1.083       .  S
C1384      C1993   1.405       .  A
C1384      C1385   1.422       .  A
C1385      C1386   1.408       .  A
C1385      C1392   1.521       .  S
C1386      C1387   1.404       .  A
C1386      H1391   1.083       .  S
C1387      C1998   1.419       .  A
C1388      C1997   1.421   1_545  A
C1388      C1389   1.521       .  S
C1389      F1393   1.385       .  S
C1389      F1394   1.384       .  S
C1389      F1395   1.382       .  S
C1392      F1396   1.383       .  S
C1392      F1397   1.383       .  S
C1392      F1398   1.385       .  S
C1399      C1400   1.401       .  A
C1399      C1404   1.406       .  A
C1399      H1406   1.083       .  S
C1400      C2011   1.413       .  A
C1401      C2010   1.416       .  A
C1401      C2012   1.408       .  A
C1401      C1408   1.519       .  S
C1402      C2011   1.405       .  A
C1402      C1403   1.403       .  A
C1402      H2017   1.080       .  S
C1403      C1404   1.419       .  A
C1404      C1405   1.522       .  S
C1405      F1409   1.381       .  S
C1405      F2020   1.384       .  S
C1405      F1411   1.381       .  S
H1407      C2012   1.082       .  S
C1408      F1412   1.384       .  S
C1408      F2023   1.385       .  S
C1408      F2024   1.382       .  S
F1410      C2015   1.384       .  S
F1413      C2018   1.385       .  S
F1414      C2018   1.382       .  S
C1415      C1416   1.401       .  A
C1415      C1420   1.409       .  A
C1415      H1422   1.083       .  S
C1416      C1417   1.413       .  A
C1417      C1418   1.405       .  A
C1417      C2034   1.518       .  S
C1418      C1419   1.404       .  A
C1418      H2033   1.080       .  S
C1419      C1420   1.420       .  A
C1420      C1421   1.521       .  S
C1421      F1425   1.385       .  S
C1421      F2036   1.382       .  S
C1421      F1427   1.381       .  S
H1423      C2028   1.078       .  S
C1424      C2027   1.517       .  S
C1424      F1428   1.383       .  S
C1424      F2039   1.383       .  S
C1424      F2040   1.385       .  S
F1426      C2031   1.381       .  S
F1429      C2034   1.383       .  S
F1430      C2034   1.384       .  S
C1431      C1432   1.402       .  A
C1431      C1436   1.407       .  A
C1431      H2048   1.083       .  S
C1432      C1433   1.418       .  A
C1433      C1434   1.407       .  A
C1433      C1440   1.519       .  S
C1434      C1435   1.402       .  A
C1434      H1439   1.083       .  S
C1435      C1436   1.418       .  A
C1436      C1437   1.519       .  S
C1437      F1441   1.385       .  S
C1437      F1442   1.382       .  S
C1437      F2053   1.383       .  S
H1438      C2041   1.083       .  S
C1440      F1444   1.382       .  S
C1440      F2055   1.385       .  S
C1440      F2056   1.384       .  S
F1443      C2047   1.383       .  S
F1445      C2050   1.385       .  S
F1446      C2050   1.383       .  S
C1447      C1448   1.405       .  A
C1447      C1452   1.408       .  A
C1447      H1454   1.083       .  S
C1448      C1449   1.420       .  A
C1449      C1450   1.407       .  A
C1449      C1456   1.517       .  S
C1450      C1451   1.400       .  A
C1450      H1455   1.085       .  S
C1451      C1452   1.413       .  A
C1452      C1453   1.517       .  S
C1453      F2067   1.385       .  S
C1453      F2068   1.383       .  S
C1453      F1459   1.383       .  S
C1456      F2070   1.380       .  S
C1456      F1461   1.383       .  S
C1456      F1462   1.384       .  S
F1457      C2063   1.384       .  S
F1458      C2063   1.383       .  S
F1460      C2066   1.379       .  S
C1463      C1464   1.402       .  A
C1463      C1468   1.407       .  A
C1463      H1470   1.085       .  S
C1464      C2075   1.415       .  A
C1465      C2074   1.418       .  A
C1465      C1466   1.406       .  A
C1465      C1472   1.519       .  S
C1466      C2077   1.403       .  A
C1466      H1471   1.081       .  S
C1467      C2076   1.406       .  A
C1467      C1468   1.424       .  A
C1468      C1469   1.523       .  S
C1469      F1473   1.383       .  S
C1469      F2084   1.379       .  S
C1469      F1475   1.384       .  S
C1472      F1476   1.383       .  S
C1472      F2087   1.383       .  S
C1472      F2088   1.385       .  S
F1474      C2079   1.380       .  S
F1477      C2082   1.382       .  S
F1478      C2082   1.384       .  S
C1479      C2090   1.404       .  A
C1479      C1484   1.410       .  A
C1479      H1486   1.083       .  S
C1480      C2089   1.403   1_545  A
C1480      C1481   1.422       .  A
C1481      C1482   1.413       .  A
C1481      C1488   1.520       .  S
C1482      C1483   1.407   1_545  A
C1482      H1487   1.083       .  S
C1483      C2094   1.424       .  A
C1484      C2093   1.419       .  A
C1484      C1485   1.521       .  S
C1485      F1489   1.384       .  S
C1485      F1490   1.384       .  S
C1485      F1491   1.382       .  S
C1488      F1492   1.383       .  S
C1488      F1493   1.384       .  S
C1488      F1494   1.385       .  S
C1495      C2106   1.404       .  A
C1495      C1500   1.408       .  A
C1495      H1502   1.082       .  S
C1496      C2105   1.404       .  A
C1496      C1497   1.421       .  A
C1497      C1498   1.410       .  A
C1497      C1504   1.520       .  S
C1498      C2109   1.404       .  A
C1498      H1503   1.083       .  S
C1499      C2108   1.403   1_545  A
C1499      C1500   1.415       .  A
C1500      C1501   1.517       .  S
C1501      F1505   1.385       .  S
C1501      F1506   1.382       .  S
C1501      F2117   1.383       .  S
C1504      F2118   1.385       .  S
C1504      F1509   1.379       .  S
C1504      F1510   1.381       .  S
F1507      C2111   1.383       .  S
F1508      C2114   1.385       .  S
C1511      C1512   1.403       .  A
C1511      C1516   1.410       .  A
C1511      H1518   1.085       .  S
C1512      C2123   1.415   1_545  A
C1513      C2122   1.419       .  A
C1513      C1514   1.407       .  A
C1513      C1520   1.519       .  S
C1514      C1515   1.404       .  A
C1514      H1519   1.083       .  S
C1515      C2126   1.420       .  A
C1516      C2125   1.421       .  A
C1516      C1517   1.517       .  S
C1517      F1521   1.384       .  S
C1517      F1522   1.379       .  S
C1517      F2133   1.383       .  S
C1520      F2134   1.383       .  S
C1520      F1525   1.383       .  S
C1520      F1526   1.385       .  S
F1523      C2127   1.384       .  S
F1524      C2130   1.384       .  S
C1527      C1528   1.404   1_545  A
C1527      C1532   1.404       .  A
C1527      H1534   1.084       .  S
C1528      C2139   1.413       .  A
C1529      C2138   1.417       .  A
C1529      C1530   1.403       .  A
C1529      C1536   1.519       .  S
C1530      C2141   1.403       .  A
C1530      H1535   1.083       .  S
C1531      C2140   1.406   1_545  A
C1531      C1532   1.417       .  A
C1532      C1533   1.522       .  S
C1533      F1537   1.385       .  S
C1533      F1538   1.384       .  S
C1533      F1539   1.382       .  S
C1536      F1540   1.382       .  S
C1536      F1541   1.383       .  S
C1536      F1542   1.385       .  S
C1543      C1544   1.409   1_545  A
C1543      C1548   1.404       .  A
C1543      H1550   1.083       .  S
C1544      C1545   1.423       .  A
C1545      C1546   1.408       .  A
C1545      C1552   1.520       .  S
C1546      C1547   1.400       .  A
C1546      H1551   1.084       .  S
C1547      C1548   1.410   1_565  A
C1548      C1549   1.519       .  S
C1549      F2163   1.384       .  S
C1549      F2164   1.384       .  S
C1549      F1555   1.383       .  S
C1552      F2166   1.384       .  S
C1552      F1557   1.383       .  S
C1552      F1558   1.385       .  S
F1553      C2159   1.385       .  S
F1554      C2159   1.383       .  S
F1556      C2162   1.384       .  S
C1559      C2170   1.406       .  A
C1559      C2174   1.408       .  A
C1559      H1566   1.083   1_565  S
C1560      C2169   1.406       .  A
C1560      C1561   1.426       .  A
C1561      C1562   1.409       .  A
C1561      C1568   1.519       .  S
C1562      C1563   1.398       .  A
C1562      H1567   1.083       .  S
C1563      C1564   1.410       .  A
C1564      C2169   1.403       .  A
C1564      C2175   1.518       .  S
C1565      C2174   1.518   1_545  S
C1565      F2179   1.385       .  S
C1565      F2180   1.383       .  S
C1565      F1571   1.383       .  S
C1568      F1572   1.383       .  S
C1568      F2183   1.384       .  S
C1568      F1574   1.385       .  S
F1569      C2175   1.384       .  S
F1570      C2175   1.381       .  S
F1573      C2178   1.383       .  S
C1575      C2186   1.409   1_545  A
C1575      C1580   1.404       .  A
C1575      H1582   1.083       .  S
C1576      C2185   1.408       .  A
C1576      C1577   1.422       .  A
C1577      C1578   1.406       .  A
C1577      C1584   1.520       .  S
C1578      C1579   1.400       .  A
C1578      H1583   1.083       .  S
C1579      C2190   1.411       .  A
C1580      C2189   1.409   1_545  A
C1580      C1581   1.518       .  S
C1581      F1585   1.384       .  S
C1581      F1586   1.383       .  S
C1581      F1587   1.383       .  S
C1584      F1588   1.383       .  S
C1584      F1589   1.384       .  S
C1584      F1590   1.385       .  S
C1591      C1596   1.405       .  A
C1591      H1598   1.083       .  S
C1592      C1593   1.408       .  A
C1593      C1594   1.405       .  A
C1593      C1600   1.518       .  S
C1594      C1595   1.410       .  A
C1594      H1599   1.083       .  S
C1596      C1597   1.520       .  S
C1597      F1601   1.385       .  S
C1597      F1602   1.383       .  S
C1597      F1603   1.384       .  S
C1600      F1604   1.383       .  S
C1600      F1605   1.383       .  S
C1600      F1606   1.384       .  S
C1607      C1608   1.398       .  A
C1607      C1612   1.405       .  A
C1607      H1614   1.084       .  S
C1609      C1610   1.402       .  A
C1609      C1616   1.520       .  S
C1610      H1615   1.084       .  S
C1611      C1612   1.422       .  A
C1612      C1613   1.520       .  S
C1613      F1617   1.385       .  S
C1613      F1618   1.382       .  S
C1613      F1619   1.384       .  S
C1616      F1620   1.383       .  S
C1616      F1621   1.382       .  S
C1616      F1622   1.385       .  S
C1623      C1624   1.403       .  A
C1623      C1628   1.408       .  A
C1623      H1630   1.083       .  S
C1625      C1626   1.408       .  A
C1625      C1632   1.522       .  S
C1626      H1631   1.082       .  S
C1627      C1628   1.421       .  A
C1628      C1629   1.520       .  S
C1629      F1633   1.385       .  S
C1629      F1634   1.382       .  S
C1629      F1635   1.384       .  S
C1632      F1636   1.384       .  S
C1632      F1637   1.383       .  S
C1632      F1638   1.385       .  S
C1639      C1640   1.405       .  A
C1639      C1644   1.408       .  A
C1639      H1646   1.081       .  S
C1640      C1641   1.418       .  A
C1641      C1642   1.406       .  A
C1641      C1648   1.520       .  S
C1642      C1643   1.404       .  A
C1642      H1647   1.083       .  S
C1643      C1644   1.416       .  A
C1644      C1645   1.518       .  S
C1645      F1649   1.384       .  S
C1645      F1650   1.383       .  S
C1648      F1652   1.383       .  S
C1655      C1656   1.399       .  A
C1655      C1660   1.407       .  A
C1655      H1662   1.083       .  S
C1657      C1658   1.407       .  A
C1657      C1664   1.516       .  S
C1658      H1663   1.082       .  S
C1659      C1660   1.417       .  A
C1660      C1661   1.517       .  S
C1661      F1665   1.385       .  S
C1661      F1666   1.376       .  S
C1661      F1667   1.382       .  S
C1664      F1668   1.381       .  S
C1664      F1669   1.383       .  S
C1664      F1670   1.384       .  S
C1671      C1676   1.404       .  A
C1671      H1678   1.085       .  S
C1672      C1673   1.417       .  A
C1673      C1674   1.408       .  A
C1673      C1680   1.517       .  S
C1674      C1675   1.405       .  A
C1674      H1679   1.081       .  S
C1676      C1677   1.520       .  S
C1677      F1681   1.384       .  S
C1677      F1682   1.378       .  S
C1677      F1683   1.383       .  S
C1680      F1684   1.377       .  S
C1680      F1685   1.382       .  S
C1680      F1686   1.385       .  S
C1687      C1692   1.404       .  A
C1687      H1694   1.085       .  S
C1688      C1689   1.413       .  A
C1689      C1690   1.408       .  A
C1689      C1696   1.516       .  S
C1690      C1691   1.405       .  A
C1690      H1695   1.083       .  S
C1692      C1693   1.517       .  S
C1693      F1697   1.384       .  S
C1693      F1698   1.381       .  S
C1693      F1699   1.382       .  S
C1696      F1700   1.383       .  S
C1696      F1701   1.383       .  S
C1696      F1702   1.385       .  S
C1703      C1708   1.407       .  A
C1703      H1710   1.083       .  S
C1704      C1705   1.414       .  A
C1705      C1706   1.406       .  A
C1705      C1712   1.518       .  S
C1706      C1707   1.405       .  A
C1706      H1711   1.081       .  S
C1708      C1709   1.521       .  S
C1709      F1713   1.384       .  S
C1709      F1714   1.382       .  S
C1709      F1715   1.383       .  S
C1712      F1716   1.383       .  S
C1712      F1717   1.383       .  S
C1712      F1718   1.385       .  S
C1719      C1724   1.406       .  A
C1719      H1726   1.085       .  S
C1720      C1721   1.414       .  A
C1721      C1722   1.407       .  A
C1721      C1728   1.518       .  S
C1722      C1723   1.404       .  A
C1722      H1727   1.082       .  S
C1724      C1725   1.518       .  S
C1725      F1729   1.382       .  S
C1725      F1730   1.382       .  S
C1725      F1731   1.384       .  S
C1728      F1732   1.383       .  S
C1728      F1733   1.382       .  S
C1728      F1734   1.385       .  S
C1735      C1740   1.408   1_556  A
C1735      H1742   1.083       .  S
C1736      C1737   1.423       .  A
C1737      C1738   1.408   1_556  A
C1737      C1744   1.521       .  S
C1738      C1739   1.404       .  A
C1738      H1743   1.083       .  S
C1740      C1741   1.522       .  S
C1741      F1745   1.385       .  S
C1741      F1746   1.383       .  S
C1741      F1747   1.383       .  S
C1744      F1748   1.383       .  S
C1744      F1749   1.383       .  S
C1744      F1750   1.385       .  S
C1751      C1756   1.408       .  A
C1751      H1758   1.083       .  S
C1752      C1753   1.411       .  A
C1753      C1754   1.402       .  A
C1753      C1760   1.516       .  S
C1754      H1759   1.082       .  S
C1755      C1756   1.426       .  A
C1756      C1757   1.519       .  S
C1757      F1761   1.386       .  S
C1757      F1762   1.383       .  S
C1757      F1763   1.382       .  S
C1760      F1764   1.383       .  S
C1760      F1765   1.381       .  S
C1760      F1766   1.385       .  S
C1767      C1768   1.408       .  A
C1767      C1772   1.404       .  A
C1767      H1774   1.082       .  S
C1769      C1770   1.407       .  A
C1769      C1776   1.521       .  S
C1770      H1775   1.083       .  S
C1771      C1772   1.408       .  A
C1772      C1773   1.518       .  S
C1773      F1777   1.384       .  S
C1773      F1779   1.383       .  S
C1776      F1780   1.384       .  S
C1776      F1782   1.384       .  S
C1783      C1788   1.407       .  A
C1783      H1790   1.083       .  S
C1784      C1785   1.422       .  A
C1785      C1786   1.409       .  A
C1785      C1792   1.519       .  S
C1786      C1787   1.404       .  A
C1786      H1791   1.083       .  S
C1788      C1789   1.522       .  S
C1789      F1793   1.385       .  S
C1789      F1794   1.383       .  S
C1789      F1795   1.384       .  S
C1792      F1796   1.383       .  S
C1792      F1797   1.383       .  S
C1792      F1798   1.385       .  S
C1799      C1800   1.403       .  A
C1799      C1804   1.407       .  A
C1799      H1806   1.083       .  S
C1801      C1802   1.408       .  A
C1801      C1808   1.518       .  S
C1802      H1807   1.084       .  S
C1803      C1804   1.414       .  A
C1804      C1805   1.516       .  S
C1805      F1809   1.384       .  S
C1805      F1810   1.383       .  S
C1805      F1811   1.382       .  S
C1808      F1812   1.380       .  S
C1808      F1813   1.382       .  S
C1808      F1814   1.384       .  S
C1815      C1816   1.406       .  A
C1815      C1820   1.405       .  A
C1815      H1822   1.081       .  S
C1817      C1818   1.408       .  A
C1817      C1824   1.518       .  S
C1818      H1823   1.084       .  S
C1819      C1820   1.414       .  A
C1820      C1821   1.515       .  S
C1821      F1825   1.385       .  S
C1821      F1826   1.376       .  S
C1821      F1827   1.383       .  S
C1824      F1828   1.385       .  S
C1824      F1829   1.376       .  S
C1824      F1830   1.383       .  S
C1831      N1832   1.360       .  A
C1831      C2413   1.479       .  S
N1832      C1833   1.357       .  A
C1833      C2429   1.475       .  S
N1834      C1835   1.355       .  A
C1835      N1836   1.360       .  A
C1835      C2397   1.485       .  S
C1837      N1838   1.362       .  A
C1837      N1842   1.362       .  A
C1837      C2394   1.489       .  S
N1838      C1839   1.353       .  A
C1839      N1840   1.349       .  A
C1839      C2381   1.461       .  S
N1840      C1841   1.349       .  A
C1841      N1842   1.360       .  A
C1841      C2362   1.470       .  S
C1843      N1844   1.354       .  A
C1843      N1848   1.359       .  A
C1843      C2330   1.474       .  S
N1844      C1845   1.356       .  A
C1845      N1846   1.358       .  A
C1845      C2349   1.485       .  S
N1846      C1847   1.359       .  A
C1847      N1848   1.360       .  A
C1847      C2314   1.475       .  S
C1849      N1850   1.363       .  A
C1849      N1854   1.360       .  A
C1849      C2282   1.486       .  S
N1850      C1851   1.361       .  A
C1851      N1852   1.354       .  A
C1851      C2298   1.475       .  S
N1852      C1853   1.355       .  A
C1853      N1854   1.359       .  A
C1853      C2346   1.483       .  S
C1855      N1856   1.358       .  A
C1855      N1860   1.352       .  A
C1855      C2253   1.470       .  S
N1856      C1857   1.360       .  A
C1857      N1858   1.362       .  A
C1857      C2266   1.478       .  S
N1858      C1859   1.364       .  A
C1859      N1860   1.353       .  A
C1859      C2234   1.491       .  S
C1861      N1862   1.357       .  A
C1861      N1866   1.369       .  A
C1861      C2237   1.494       .  S
N1862      C1863   1.352       .  A
C1863      N1864   1.350       .  A
C1863      C2218   1.465       .  S
N1864      C1865   1.354       .  A
C1865      N1866   1.362       .  A
C1865      C2202   1.492       .  S
C1867      C2269   1.490       .  S
C1867      C1868   1.418       .  A
C1867      C1872   1.405       .  A
C1868      C2333   1.486       .  S
C1868      C1869   1.402       .  A
C1869      H1874   1.083       .  S
C1870      C2317   1.489       .  S
C1870      C1871   1.414       .  A
C1871      C2250   1.486       .  S
C1872      H1873   1.083       .  S
C1875      C2301   1.487       .  S
C1875      C1876   1.418       .  A
C1875      C1880   1.405       .  A
C1876      C2426   1.495       .  S
C1876      C1877   1.406       .  A
C1877      H1882   1.084       .  S
C1878      C2410   1.487       .  S
C1878      C1879   1.419       .  A
C1879      C2285   1.494       .  S
C1880      H1881   1.083       .  S
In1883     O1885   2.241       .  S
In1883     O1894   2.238       .  S
C1884      C2365   1.480       .  S
C1884      O1892   1.261       .  A
O1886      C1893   1.258       .  A
C1887      C2378   1.486       .  S
C1887      O1894   1.263       .  A
C1889      C2186   1.490       .  S
C1889      O1891   1.261       .  A
C1893      C2170   1.476       .  S
In1896     O1903   2.226       .  S
In1896     O1904   2.235       .  S
In1896     O1905   2.236       .  S
C1897      C2221   1.484       .  S
C1897      O1903   1.261       .  A
C1897      O1905   1.260       .  A
O1899      C1906   1.261       .  A
C1900      C2205   1.485       .  S
C1900      O1907   1.260       .  A
C1900      O1901   1.260       .  A
C1902      C2154   1.481       .  S
C1902      O1904   1.259       .  A
C1906      C2141   1.482       .  S
C1909      N1910   1.362       .  A
C1909      N1914   1.358       .  A
C1909      C2122   1.486       .  S
N1910      C1911   1.361       .  A
C1911      N1912   1.361       .  A
C1911      C2109   1.490       .  S
N1912      C1913   1.359       .  A
C1913      N1914   1.358       .  A
C1913      C2090   1.484       .  S
C1915      N1916   1.360       .  A
C1915      N1920   1.364       .  A
C1915      C2093   1.482       .  S
N1916      C1917   1.356       .  A
C1917      N1918   1.352       .  A
C1917      C2157   1.471       .  S
N1918      C1919   1.351       .  A
C1919      N1920   1.361       .  A
C1919      C2138   1.475       .  S
C1921      N1922   1.359       .  A
C1921      N1926   1.360       .  A
C1921      C2074   1.485       .  S
N1922      C1923   1.358       .  A
C1923      N1924   1.357       .  A
C1923      C2061   1.475       .  S
N1924      C1925   1.360       .  A
C1925      N1926   1.359       .  A
C1925      C2042   1.491       .  S
C1927      N1928   1.358       .  A
C1927      N1932   1.360       .  A
C1927      C2026   1.475       .  S
N1928      C1929   1.357       .  A
C1929      N1930   1.357       .  A
C1929      C2010   1.476       .  S
N1930      C1931   1.356       .  A
C1931      N1932   1.362       .  A
C1931      C2045   1.492       .  S
C1933      N1934   1.360       .  A
C1933      N1938   1.364       .  A
C1933      C1994   1.478       .  S
N1934      C1935   1.355       .  A
C1935      N1936   1.348       .  A
C1935      C2189   1.464       .  S
N1936      C1937   1.352       .  A
C1937      N1938   1.360       .  A
C1937      C2173   1.476       .  S
C1939      N1940   1.356   1_565  A
C1939      N1944   1.355       .  A
C1939      C1962   1.471   1_565  S
N1940      C1941   1.357       .  A
C1941      N1942   1.359   1_545  A
C1941      C1978   1.471       .  S
N1942      C1943   1.360       .  A
C1943      N1944   1.355       .  A
C1943      C1997   1.481       .  S
C1945      C2029   1.492       .  S
C1945      C1946   1.419       .  A
C1945      C1950   1.401       .  A
C1946      C1981   1.484       .  S
C1946      C1947   1.403       .  A
C1947      H1952   1.082       .  S
C1948      C1965   1.486       .  S
C1948      C1949   1.415       .  A
C1949      C2013   1.486       .  S
C1950      H1951   1.082       .  S
C1953      C2125   1.491       .  S
C1953      C1954   1.417       .  A
C1953      C1958   1.405       .  A
C1954      C2077   1.491   1_545  S
C1954      C1955   1.405   1_545  A
C1955      H1960   1.084       .  S
C1956      C2058   1.490       .  S
C1956      C1957   1.420   1_565  A
C1957      C2106   1.493       .  S
C1958      H1959   1.084       .  S
C1961      C1962   1.401       .  A
C1961      C1966   1.405       .  A
C1961      H1968   1.084       .  S
C1962      C1963   1.413   1_545  A
C1963      C1964   1.405       .  A
C1963      C1970   1.518       .  S
C1964      C1965   1.404   1_565  A
C1964      H1969   1.081       .  S
C1965      C1966   1.418       .  A
C1967      F1973   1.382       .  S
C1970      F1974   1.383       .  S
C1970      F1976   1.385       .  S
C1977      C1978   1.402   1_565  A
C1977      C1982   1.409       .  A
C1977      H1984   1.083       .  S
C1978      C1979   1.413       .  A
C1979      C1980   1.402       .  A
C1979      C1986   1.519       .  S
C1980      C1981   1.402       .  A
C1980      H1985   1.078       .  S
C1981      C1982   1.420   1_545  A
C1982      C1983   1.523       .  S
C1983      F1987   1.384       .  S
C1983      F1988   1.381       .  S
C1986      F1990   1.382       .  S
C1993      C1998   1.407       .  A
C1993      H2000   1.083       .  S
C1994      C1995   1.418       .  A
C1995      C1996   1.406       .  A
C1995      C2002   1.520       .  S
C1996      C1997   1.403       .  A
C1996      H2001   1.083       .  S
C1998      C1999   1.521       .  S
C1999      F2003   1.384       .  S
C1999      F2004   1.384       .  S
C1999      F2005   1.382       .  S
C2002      F2006   1.382       .  S
C2002      F2007   1.384       .  S
C2002      F2008   1.384       .  S
C2009      C2010   1.401   1_565  A
C2009      C2014   1.404       .  A
C2009      H2016   1.083       .  S
C2011      C2018   1.518       .  S
C2012      C2013   1.405       .  A
C2013      C2014   1.418   1_545  A
C2014      C2015   1.521       .  S
C2015      F2019   1.381       .  S
C2015      F2021   1.383       .  S
C2018      F2022   1.384       .  S
C2025      C2026   1.401       .  A
C2025      C2030   1.410       .  A
C2025      H2032   1.083       .  S
C2026      C2027   1.412   1_545  A
C2027      C2028   1.406       .  A
C2028      C2029   1.404   1_565  A
C2029      C2030   1.421       .  A
C2030      C2031   1.520       .  S
C2031      F2035   1.385       .  S
C2031      F2037   1.381       .  S
C2034      F2038   1.382       .  S
C2041      C2042   1.405   1_545  A
C2041      C2046   1.408       .  A
C2042      C2043   1.421       .  A
C2043      C2044   1.408       .  A
C2043      C2050   1.520       .  S
C2044      C2045   1.405   1_565  A
C2044      H2049   1.083       .  S
C2045      C2046   1.424       .  A
C2046      C2047   1.523       .  S
C2047      F2051   1.385       .  S
C2047      F2052   1.383       .  S
C2050      F2054   1.383       .  S
C2057      C2058   1.404   1_545  A
C2057      C2062   1.405       .  A
C2057      H2064   1.081       .  S
C2058      C2059   1.423       .  A
C2059      C2060   1.409       .  A
C2059      C2066   1.519       .  S
C2060      C2061   1.400       .  A
C2060      H2065   1.085       .  S
C2061      C2062   1.412   1_565  A
C2062      C2063   1.518       .  S
C2063      F2069   1.383       .  S
C2066      F2071   1.383       .  S
C2066      F2072   1.384       .  S
C2073      C2074   1.405   1_545  A
C2073      C2078   1.407       .  A
C2073      H2080   1.085       .  S
C2075      C2076   1.408       .  A
C2075      C2082   1.518       .  S
C2076      H2081   1.083       .  S
C2077      C2078   1.422   1_565  A
C2078      C2079   1.522       .  S
C2079      F2083   1.383       .  S
C2079      F2085   1.384       .  S
C2082      F2086   1.384       .  S
C2089      C2094   1.410       .  A
C2089      H2096   1.082       .  S
C2090      C2091   1.418       .  A
C2091      C2092   1.408       .  A
C2091      C2098   1.518       .  S
C2092      C2093   1.402       .  A
C2092      H2097   1.083       .  S
C2094      C2095   1.521       .  S
C2095      F2099   1.385       .  S
C2095      F2100   1.384       .  S
C2095      F2101   1.382       .  S
C2098      F2102   1.382       .  S
C2098      F2103   1.384       .  S
C2098      F2104   1.384       .  S
C2105      C2110   1.410       .  A
C2105      H2112   1.081       .  S
C2106      C2107   1.417   1_545  A
C2107      C2108   1.409       .  A
C2107      C2114   1.517       .  S
C2108      H2113   1.083       .  S
C2109      C2110   1.419       .  A
C2110      C2111   1.518       .  S
C2111      F2115   1.385       .  S
C2111      F2116   1.383       .  S
C2114      F2119   1.380       .  S
C2114      F2120   1.382       .  S
C2121      C2122   1.404       .  A
C2121      C2126   1.407       .  A
C2121      H2128   1.085       .  S
C2123      C2124   1.407       .  A
C2123      C2130   1.517       .  S
C2124      C2125   1.403   1_565  A
C2124      H2129   1.083       .  S
C2126      C2127   1.516       .  S
C2127      F2131   1.383       .  S
C2127      F2132   1.379       .  S
C2130      F2135   1.382       .  S
C2130      F2136   1.385       .  S
C2137      C2138   1.401       .  A
C2137      C2142   1.409       .  A
C2137      H2144   1.083       .  S
C2139      C2140   1.410       .  A
C2139      C2146   1.516       .  S
C2140      H2145   1.083       .  S
C2141      C2142   1.421       .  A
C2142      C2143   1.519       .  S
C2143      F2147   1.385       .  S
C2143      F2148   1.383       .  S
C2143      F2149   1.384       .  S
C2146      F2150   1.384       .  S
C2146      F2151   1.382       .  S
C2146      F2152   1.385       .  S
C2153      C2154   1.407       .  A
C2153      C2158   1.405       .  A
C2153      H2160   1.083       .  S
C2154      C2155   1.419       .  A
C2155      C2156   1.404       .  A
C2155      C2162   1.520       .  S
C2156      C2157   1.401       .  A
C2156      H2161   1.082       .  S
C2157      C2158   1.413       .  A
C2158      C2159   1.519       .  S
C2159      F2165   1.383       .  S
C2162      F2167   1.383       .  S
C2162      F2168   1.385       .  S
C2169      H2176   1.082       .  S
C2170      C2171   1.417       .  A
C2171      C2172   1.402       .  A
C2171      C2178   1.522       .  S
C2172      C2173   1.404       .  A
C2172      H2177   1.083       .  S
C2173      C2174   1.415       .  A
C2175      F2181   1.384       .  S
C2178      F2182   1.384       .  S
C2178      F2184   1.385       .  S
C2185      C2190   1.403       .  A
C2185      H2192   1.083       .  S
C2186      C2187   1.426       .  A
C2187      C2188   1.406       .  A
C2187      C2194   1.520       .  S
C2188      C2189   1.396       .  A
C2188      H2193   1.084       .  S
C2190      C2191   1.519       .  S
C2191      F2195   1.382       .  S
C2191      F2196   1.382       .  S
C2191      F2197   1.385       .  S
C2194      F2198   1.383       .  S
C2194      F2199   1.383       .  S
C2194      F2200   1.385       .  S
C2201      C2206   1.407       .  A
C2201      H2208   1.084   1_455  S
C2202      C2203   1.419       .  A
C2203      C2204   1.412       .  A
C2203      C2210   1.518       .  S
C2204      C2205   1.406       .  A
C2204      H2209   1.083       .  S
C2206      C2207   1.519   1_455  S
C2207      F2211   1.385       .  S
C2207      F2212   1.384       .  S
C2207      F2213   1.383       .  S
C2210      F2214   1.383       .  S
C2210      F2215   1.383       .  S
C2210      F2216   1.385       .  S
C2217      C2218   1.399       .  A
C2217      C2222   1.404       .  A
C2217      H2224   1.083       .  S
C2219      C2220   1.403       .  A
C2219      C2226   1.519       .  S
C2220      H2225   1.083       .  S
C2221      C2222   1.422       .  A
C2222      C2223   1.520       .  S
C2223      F2227   1.385       .  S
C2223      F2228   1.383       .  S
C2223      F2229   1.383       .  S
C2226      F2230   1.382       .  S
C2226      F2231   1.384       .  S
C2226      F2232   1.384       .  S
C2233      C2234   1.403       .  A
C2233      C2238   1.408       .  A
C2233      H2240   1.083       .  S
C2235      C2236   1.407       .  A
C2235      C2242   1.524   1_455  S
C2236      H2241   1.082       .  S
C2237      C2238   1.427       .  A
C2238      C2239   1.523       .  S
C2239      F2243   1.385       .  S
C2239      F2244   1.381       .  S
C2239      F2245   1.383       .  S
C2242      F2246   1.384       .  S
C2242      F2247   1.384   1_655  S
C2242      F2248   1.384       .  S
C2249      C2250   1.406       .  A
C2249      C2254   1.406       .  A
C2249      H2256   1.079       .  S
C2250      C2251   1.420       .  A
C2251      C2252   1.404       .  A
C2251      C2258   1.519       .  S
C2252      C2253   1.400       .  A
C2252      H2257   1.085       .  S
C2253      C2254   1.411       .  A
C2254      C2255   1.518       .  S
C2255      F2259   1.384       .  S
C2255      F2260   1.384       .  S
C2258      F2262   1.380       .  S
C2265      C2266   1.400       .  A
C2265      C2270   1.408       .  A
C2265      H2272   1.083       .  S
C2267      C2268   1.408       .  A
C2267      C2274   1.516       .  S
C2268      H2273   1.082       .  S
C2269      C2270   1.418       .  A
C2270      C2271   1.519       .  S
C2271      F2275   1.384       .  S
C2271      F2276   1.375       .  S
C2271      F2277   1.381       .  S
C2274      F2278   1.380       .  S
C2274      F2279   1.383       .  S
C2274      F2280   1.385       .  S
C2281      C2286   1.407       .  A
C2281      H2288   1.083       .  S
C2282      C2283   1.416       .  A
C2283      C2284   1.409       .  A
C2283      C2290   1.517       .  S
C2284      C2285   1.406       .  A
C2284      H2289   1.082       .  S
C2286      C2287   1.523       .  S
C2287      F2291   1.385       .  S
C2287      F2292   1.377       .  S
C2287      F2293   1.380       .  S
C2290      F2294   1.380       .  S
C2290      F2295   1.383       .  S
C2290      F2296   1.385       .  S
C2297      C2302   1.407       .  A
C2297      H2304   1.085       .  S
C2298      C2299   1.413       .  A
C2299      C2300   1.409       .  A
C2299      C2306   1.515       .  S
C2300      C2301   1.406       .  A
C2300      H2305   1.083       .  S
C2302      C2303   1.516       .  S
C2303      F2307   1.384       .  S
C2303      F2308   1.378       .  S
C2303      F2309   1.383       .  S
C2306      F2310   1.383       .  S
C2306      F2311   1.381       .  S
C2306      F2312   1.385       .  S
C2313      C2318   1.408       .  A
C2313      H2320   1.083       .  S
C2314      C2315   1.414       .  A
C2315      C2316   1.407       .  A
C2315      C2322   1.518       .  S
C2316      C2317   1.405       .  A
C2316      H2321   1.082       .  S
C2318      C2319   1.521       .  S
C2319      F2323   1.384       .  S
C2319      F2324   1.381       .  S
C2319      F2325   1.381       .  S
C2322      F2326   1.383       .  S
C2322      F2327   1.383       .  S
C2322      F2328   1.384       .  S
C2329      C2334   1.407       .  A
C2329      H2336   1.085       .  S
C2330      C2331   1.415       .  A
C2331      C2332   1.404       .  A
C2331      C2338   1.520       .  S
C2332      C2333   1.403       .  A
C2332      H2337   1.083       .  S
C2334      C2335   1.519       .  S
C2335      F2339   1.383       .  S
C2335      F2340   1.381       .  S
C2335      F2341   1.384       .  S
C2338      F2342   1.383       .  S
C2338      F2343   1.382       .  S
C2338      F2344   1.385       .  S
C2345      C2350   1.409   1_556  A
C2345      H2352   1.083       .  S
C2346      C2347   1.421       .  A
C2347      C2348   1.405   1_556  A
C2347      C2354   1.522       .  S
C2348      C2349   1.404       .  A
C2348      H2353   1.083       .  S
C2350      C2351   1.520       .  S
C2351      F2355   1.384       .  S
C2351      F2356   1.383       .  S
C2351      F2357   1.382       .  S
C2354      F2358   1.383       .  S
C2354      F2359   1.383       .  S
C2354      F2360   1.385       .  S
C2361      C2366   1.408       .  A
C2361      H2368   1.083       .  S
C2362      C2363   1.416       .  A
C2363      C2364   1.402       .  A
C2363      C2370   1.521       .  S
C2364      H2369   1.083       .  S
C2365      C2366   1.421       .  A
C2366      C2367   1.519       .  S
C2367      F2371   1.385       .  S
C2367      F2372   1.383       .  S
C2367      F2373   1.383       .  S
C2370      F2374   1.383       .  S
C2370      F2375   1.382       .  S
C2370      F2376   1.385       .  S
C2377      C2378   1.409       .  A
C2377      C2382   1.403       .  A
C2377      H2384   1.082       .  S
C2379      C2380   1.405       .  A
C2379      C2386   1.521       .  S
C2380      H2385   1.083       .  S
C2381      C2382   1.407       .  A
C2382      C2383   1.518       .  S
C2383      F2387   1.384       .  S
C2383      F2389   1.383       .  S
C2386      F2390   1.383       .  S
C2386      F2392   1.385       .  S
C2393      C2398   1.407       .  A
C2393      H2400   1.082       .  S
C2394      C2395   1.422       .  A
C2395      C2396   1.409       .  A
C2395      C2402   1.520       .  S
C2396      C2397   1.405       .  A
C2396      H2401   1.083       .  S
C2398      C2399   1.523       .  S
C2399      F2403   1.385       .  S
C2399      F2404   1.383       .  S
C2399      F2405   1.383       .  S
C2402      F2406   1.384       .  S
C2402      F2407   1.383       .  S
C2402      F2408   1.385       .  S
C2409      C2410   1.404       .  A
C2409      C2414   1.408       .  A
C2409      H2416   1.083       .  S
C2411      C2412   1.403       .  A
C2411      C2418   1.514       .  S
C2412      H2417   1.085       .  S
C2413      C2414   1.414       .  A
C2414      C2415   1.516       .  S
C2415      F2419   1.385       .  S
C2415      F2420   1.382       .  S
C2415      F2421   1.383       .  S
C2418      F2422   1.376       .  S
C2418      F2423   1.383       .  S
C2418      F2424   1.384       .  S
C2425      C2426   1.407       .  A
C2425      C2430   1.409       .  A
C2425      H2432   1.081       .  S
C2427      C2428   1.407       .  A
C2427      C2434   1.521       .  S
C2428      H2433   1.084       .  S
C2429      C2430   1.413       .  A
C2430      C2431   1.518       .  S
C2431      F2435   1.384       .  S
C2431      F2436   1.381       .  S
C2431      F2437   1.383       .  S
C2434      F2438   1.385       .  S
C2434      F2439   1.379       .  S
C2434      F2440   1.382       .  S
