geometry optimzed in LAMMPS
_audit_creation_date              2020-12-01 
_audit_creation_method            'lammps2cif' 
_symmetry_space_group_name_H-M    'P1' 
_symmetry_Int_Tables_number       1 
_symmetry_cell_setting            triclinic 
loop_ 
_symmetry_equiv_pos_as_xyz 
  x,y,z 
_cell_length_a                    29.98320549 
_cell_length_b                    30.064891755549787 
_cell_length_c                    76.29362388756849 
_cell_angle_alpha                 89.64151828241818 
_cell_angle_beta                  90.59498921058274 
_cell_angle_gamma                 90.14160090793604 
loop_ 
_atom_site_label 
_atom_site_type_symbol 
_atom_site_fract_x 
_atom_site_fract_y 
_atom_site_fract_z 
_atom_site_charge 
O1          O  0.01607071  0.91053391  0.51768699    -0.73200
O2          O  0.05911038  0.99976171  0.48291376    -0.74200
O3          O  0.05386575  0.99618660  0.51974099    -0.62800
O4          O  0.02139313  0.91417905  0.48063851    -0.71200
O5          O  0.95307369  0.94267097  0.47953267    -0.70800
O6          O  0.98667594  0.02644781  0.51805296    -0.62000
O7          O  0.99148587  0.02889846  0.48106144    -0.74500
O8          O  0.94862811  0.94064970  0.51678143    -0.73300
Cu9        Cu  0.03986747  0.95404030  0.50028634     1.04600
Cu10       Cu  0.96751076  0.98563246  0.49879527     1.04300
C11         C  0.97591493  0.91194198  0.52304737     0.93000
C12         C  0.03233633  0.02850791  0.47640883     0.92200
C13         C  0.02554018  0.02458141  0.52505014     0.84300
C14         C  0.98246486  0.91601482  0.47374902     0.90600
C15         C  0.01745809  0.93761657  0.74277004     0.86200
C16         C  0.05553016  0.92903701  0.75611259    -0.54000
C17         C  0.07048160  0.96651082  0.76447677     0.09200
C18         C  0.04456189  0.00878633  0.75929258     0.20100
C19         C  0.98109484  0.95993525  0.75383709    -0.54700
C20         C  0.99534220  0.99708298  0.76234478     0.09300
C21         C  0.03485041  0.97477573  0.73078178    -0.54200
C22         C  0.04941124  0.01154085  0.73940812     0.09800
H23         H  0.06916087  0.89621880  0.75870636     0.14400
H24         H  0.05589608  0.03946200  0.76605246     0.00100
H25         H  0.94798487  0.94681033  0.75605256     0.14700
H26         H  0.03649677  0.97187708  0.71660838     0.14500
C27         C  0.10971656  0.95935728  0.23390182     0.86200
C28         C  0.12201409  0.99507338  0.24776295    -0.54000
C29         C  0.08689573  0.00795001  0.25781237     0.09200
C30         C  0.04289760  0.98429330  0.25336423     0.20100
C31         C  0.08940016  0.92176074  0.24500283    -0.54700
C32         C  0.05404417  0.93447486  0.25494193     0.09300
C33         C  0.07068028  0.98049789  0.22370145    -0.54200
C34         C  0.03584421  0.99291142  0.23377414     0.09800
H35         H  0.15462465  0.00954627  0.24989790     0.14400
H36         H  0.01441652  0.99495333  0.26152891     0.00100
H37         H  0.10355847  0.88862209  0.24586087     0.14700
H38         H  0.07094298  0.98612161  0.20961631     0.14500
N39         N  0.94760752  0.74886760  0.39617846    -0.27500
N40         N  0.93836219  0.78512398  0.38698743    -0.35400
C41         C  0.93476001  0.81965064  0.39792503     0.00800
C42         C  0.94149048  0.80435956  0.41484834     0.06800
C43         C  0.94967611  0.75931538  0.41328664    -0.06300
H44         H  0.93126044  0.85394748  0.39376091     0.07500
H45         H  0.96067050  0.73682299  0.42356838     0.08700
Cu46       Cu  0.94104175  0.78870301  0.36003676     0.44200
Cu47       Cu  0.96626565  0.68981696  0.38465206     0.42000
Cu48       Cu  0.98820247  0.69538548  0.33760226     0.43900
N49         N  0.96128366  0.79135145  0.33432761    -0.34900
N50         N  0.97993196  0.75774955  0.32611153    -0.29200
C51         C  0.99542664  0.77242437  0.31061427    -0.05300
C52         C  0.98654953  0.81758495  0.30914626     0.06900
C53         C  0.96422551  0.82813252  0.32435049     0.00700
H54         H  0.01417399  0.75234146  0.30158074     0.08400
H55         H  0.95251508  0.86049515  0.32831045     0.07500
N56         N  0.99614647  0.63850043  0.35295145    -0.36400
N57         N  0.98855732  0.63685960  0.36998036    -0.28500
C58         C  0.99841581  0.59600977  0.37606214    -0.03800
C59         C  0.01250224  0.57023088  0.36218529     0.04800
C60         C  0.01083284  0.59850416  0.34775301     0.02900
H61         H  0.99661549  0.58651946  0.38972463     0.08000
H62         H  0.01971959  0.59068196  0.33442013     0.06900
O63         O  0.10697303  0.09344684  0.02002908    -0.73200
O64         O  0.01579570  0.13926276  0.98546260    -0.74200
O65         O  0.02120515  0.13234303  0.02273881    -0.62800
O66         O  0.10166952  0.10051016  0.98318200    -0.71200
O67         O  0.07103807  0.03358515  0.98198413    -0.70800
O68         O  0.99046817  0.06543017  0.02140744    -0.62000
O69         O  0.98523429  0.07220647  0.98434956    -0.74500
O70         O  0.07565864  0.02680207  0.01864635    -0.73300
Cu71       Cu  0.06234636  0.11882906  0.00290421     1.04600
Cu72       Cu  0.02940009  0.04730863  0.00155596     1.04300
C73         C  0.10605873  0.05252003  0.02463506     0.93000
C74         C  0.98637821  0.11266689  0.97923808     0.92200
C75         C  0.99351921  0.10363967  0.02857439     0.84300
C76         C  0.09972711  0.06169487  0.97647692     0.90600
N77         N  0.82754441  0.13757488  0.10772336    -0.27500
N78         N  0.86544803  0.14310031  0.11641701    -0.35400
C79         C  0.89910240  0.14457673  0.10494839     0.00800
C80         C  0.88161848  0.13896605  0.08826013     0.06800
C81         C  0.83600112  0.13536852  0.09049620    -0.06300
H82         H  0.93405213  0.14548517  0.10860711     0.07500
H83         H  0.81084273  0.12933716  0.08055284     0.08700
Cu84       Cu  0.87125877  0.13654848  0.14332354     0.44200
Cu85       Cu  0.76798861  0.12265523  0.11968572     0.42000
Cu86       Cu  0.77738249  0.08449475  0.16471632     0.43900
N87         N  0.87399464  0.11006034  0.16838361    -0.34900
N88         N  0.84020692  0.08954747  0.17596611    -0.29200
C89         C  0.85474162  0.07004873  0.19086185    -0.05300
C90         C  0.89979419  0.07911418  0.19283961     0.06900
C91         C  0.91082962  0.10445312  0.17830020     0.00700
H92         H  0.83443784  0.04919214  0.19920777     0.08400
H93         H  0.94385847  0.11503015  0.17447321     0.07500
N94         N  0.71948903  0.08032760  0.14986291    -0.36400
N95         N  0.71619669  0.09460665  0.13349013    -0.28500
C96         C  0.67584966  0.08380971  0.12704686    -0.03800
C97         C  0.65242446  0.06172771  0.13998535     0.04800
C98         C  0.68115745  0.06014203  0.15430727     0.02900
H99         H  0.66495364  0.09038452  0.11372015     0.08000
H100        H  0.67575015  0.04347089  0.16670817     0.06900
N101        N  0.09610181  0.20453711  0.40287047    -0.27500
N102        N  0.10442108  0.16685566  0.39475879    -0.35400
C103        C  0.10076001  0.13296852  0.40615409     0.00800
C104        C  0.08898966  0.15002001  0.42220101     0.06800
C105        C  0.08666051  0.19563795  0.41973438    -0.06300
H106        H  0.10327537  0.09821406  0.40270441     0.07500
H107        H  0.07741099  0.22041470  0.42922791     0.08700
Cu108      Cu  0.11151445  0.16210255  0.36807609     0.44200
Cu109      Cu  0.09243719  0.26465664  0.38966233     0.42000
Cu110      Cu  0.08900085  0.25890645  0.34145247     0.43900
N111        N  0.10448444  0.16022859  0.34125365    -0.34900
N112        N  0.09513478  0.19508518  0.33127126    -0.29200
C113        C  0.09040048  0.18142382  0.31455701    -0.05300
C114        C  0.09703403  0.13568090  0.31410900     0.06900
C115        C  0.10598576  0.12368968  0.33130970     0.00700
H116        H  0.08311199  0.20330103  0.30360134     0.08400
H117        H  0.11206101  0.09053434  0.33636995     0.07500
N118        N  0.08469325  0.31746314  0.35581049    -0.36400
N119        N  0.08580041  0.31908962  0.37314088    -0.28500
C120        C  0.07892722  0.36114323  0.37824384    -0.03800
C121        C  0.07345302  0.38751597  0.36347982     0.04800
C122        C  0.07737481  0.35873221  0.34946903     0.02900
H123        H  0.07653185  0.37146607  0.39176213     0.08000
H124        H  0.07265999  0.36665792  0.33572583     0.06900
N125        N  0.29129597  0.96816430  0.09135063    -0.27500
N126        N  0.25709689  0.94666114  0.09823148    -0.35400
C127        C  0.22162950  0.95073013  0.08748223     0.00800
C128        C  0.23388439  0.97642967  0.07325907     0.06800
C129        C  0.27821431  0.98713079  0.07614582    -0.06300
H130        H  0.18840892  0.93913657  0.09055350     0.07500
H131        H  0.29884613  0.00867667  0.06819918     0.08700
Cu132      Cu  0.25566463  0.92227782  0.12359145     0.44200
Cu133      Cu  0.35271349  0.97431362  0.10368510     0.42000
Cu134      Cu  0.35394303  0.93821138  0.14918008     0.43900
N135        N  0.25654847  0.91775806  0.15063251    -0.34900
N136        N  0.29301077  0.92412830  0.16011460    -0.29200
C137        C  0.28222562  0.92569683  0.17714110    -0.05300
C138        C  0.23641890  0.92060061  0.17847904     0.06900
C139        C  0.22140621  0.91519184  0.16136475     0.00700
H140        H  0.30600954  0.93187687  0.18758862     0.08400
H141        H  0.18708988  0.91300229  0.15692119     0.07500
N142        N  0.40932524  0.96055369  0.13601983    -0.36400
N143        N  0.40907040  0.97430160  0.11954070    -0.28500
C144        C  0.44980306  0.98983901  0.11556380    -0.03800
C145        C  0.47699691  0.98557041  0.13028255     0.04800
C146        C  0.45006248  0.96694959  0.14298063     0.02900
H147        H  0.45808569  0.00524674  0.10316904     0.08000
H148        H  0.45891206  0.95977081  0.15648336     0.06900
N149        N  0.82534323  0.15291748  0.89859346    -0.27500
N150        N  0.86381228  0.15504806  0.89034195    -0.35400
C151        C  0.89702825  0.15826323  0.90222445     0.00800
C152        C  0.87867493  0.15801380  0.91880893     0.06800
C153        C  0.83309058  0.15443690  0.91597125    -0.06300
H154        H  0.93208417  0.15690228  0.89905763     0.07500
H155        H  0.80761256  0.15068599  0.92581162     0.08700
Cu156      Cu  0.87019497  0.14440689  0.86372350     0.44200
Cu157      Cu  0.76491168  0.14182818  0.88593556     0.42000
Cu158      Cu  0.76957337  0.11837468  0.83935273     0.43900
N159        N  0.86960377  0.12023620  0.83839533    -0.34900
N160        N  0.83288643  0.11089913  0.82941035    -0.29200
C161        C  0.84400380  0.09080400  0.81438548    -0.05300
C162        C  0.88992705  0.08669352  0.81403855     0.06900
C163        C  0.90505259  0.10617944  0.82938337     0.00700
H164        H  0.82027532  0.07752195  0.80499288     0.08400
H165        H  0.93916907  0.10847213  0.83403875     0.07500
N166        N  0.71140795  0.11802689  0.85362360    -0.36400
N167        N  0.70963419  0.12654088  0.87058055    -0.28500
C168        C  0.66753478  0.12068252  0.87603732    -0.03800
C169        C  0.64159946  0.10808425  0.86179872     0.04800
C170        C  0.67058446  0.10629238  0.84786079     0.02900
H171        H  0.65726895  0.12316100  0.88953867     0.08000
H172        H  0.66279742  0.09615464  0.83459271     0.06900
N173        N  0.93451617  0.74809343  0.60224017    -0.27500
N174        N  0.92932036  0.78517706  0.61117420    -0.35400
C175        C  0.92793618  0.81977068  0.59995524     0.00800
C176        C  0.93247120  0.80367336  0.58310890     0.06800
C177        C  0.93660507  0.75806521  0.58509246    -0.06300
H178        H  0.92735243  0.85423941  0.60392591     0.07500
H179        H  0.94315469  0.73409162  0.57492800     0.08700
Cu180      Cu  0.93270004  0.78819827  0.63816714     0.44200
Cu181      Cu  0.94647513  0.68685887  0.61375686     0.42000
Cu182      Cu  0.97849843  0.69168972  0.65966026     0.43900
N183        N  0.94964381  0.78600161  0.66443664    -0.34900
N184        N  0.96838530  0.75121381  0.67216277    -0.29200
C185        C  0.98018673  0.76203007  0.68863353    -0.05300
C186        C  0.96742018  0.80544300  0.69142646     0.06900
C187        C  0.94853944  0.81980253  0.67581944     0.00700
H188        H  0.99790041  0.74039191  0.69768348     0.08400
H189        H  0.93737483  0.85310412  0.67262775     0.07500
N190        N  0.98066813  0.63481212  0.64482374    -0.36400
N191        N  0.96796398  0.63253307  0.62821840    -0.28500
C192        C  0.97379858  0.59074956  0.62254727    -0.03800
C193        C  0.99097353  0.56563941  0.63629745     0.04800
C194        C  0.99503633  0.59471610  0.65017059     0.02900
H195        H  0.96745606  0.58000028  0.60924768     0.08000
H196        H  0.00758928  0.58735924  0.66321297     0.06900
N197        N  0.06795244  0.19496487  0.60210177    -0.27500
N198        N  0.08620129  0.16016587  0.60999029    -0.35400
C199        C  0.08570038  0.12556370  0.59893429     0.00800
C200        C  0.06580648  0.13933433  0.58343625     0.06800
C201        C  0.05518827  0.18354656  0.58581329    -0.06300
H202        H  0.09709660  0.09239015  0.60220536     0.07500
H203        H  0.03881573  0.20561748  0.57654256     0.08700
Cu204      Cu  0.10563840  0.16035343  0.63601138     0.44200
Cu205      Cu  0.05917247  0.25520179  0.61431885     0.42000
Cu206      Cu  0.08856533  0.26148911  0.66065459     0.43900
N207        N  0.11007923  0.16416994  0.66297130    -0.34900
N208        N  0.10291416  0.20064735  0.67208373    -0.29200
C209        C  0.10014859  0.18984166  0.68917188    -0.05300
C210        C  0.10556829  0.14427508  0.69082891     0.06900
C211        C  0.11229771  0.12929887  0.67397650     0.00700
H212        H  0.09178153  0.21302350  0.69940374     0.08400
H213        H  0.11417975  0.09500737  0.66982633     0.07500
N214        N  0.06730770  0.31511159  0.64572554    -0.36400
N215        N  0.05566386  0.31236047  0.62900959    -0.28500
C216        C  0.04189063  0.35239372  0.62332821    -0.03800
C217        C  0.04542904  0.38191431  0.63706954     0.04800
C218        C  0.06147739  0.35714011  0.65111072     0.02900
H219        H  0.03038530  0.35948528  0.61011883     0.08000
H220        H  0.06740958  0.36841983  0.66436987     0.06900
N221        N  0.27897686  0.01885801  0.90226192    -0.27500
N222        N  0.24552697  0.99622632  0.89533555    -0.35400
C223        C  0.21152937  0.99531464  0.90659961     0.00800
C224        C  0.22394226  0.01876777  0.92141473     0.06800
C225        C  0.26722594  0.03302036  0.91825356    -0.06300
H226        H  0.17921107  0.98081969  0.90375862     0.07500
H227        H  0.28839666  0.05285846  0.92670577     0.08700
Cu228      Cu  0.24516004  0.97401444  0.86993389     0.44200
Cu229      Cu  0.33655223  0.03146430  0.88839439     0.42000
Cu230      Cu  0.33440277  0.00365497  0.84102649     0.43900
N231        N  0.24095003  0.96873012  0.84314632    -0.34900
N232        N  0.27274529  0.98049883  0.83217273    -0.29200
C233        C  0.25603745  0.97945645  0.81569214    -0.05300
C234        C  0.21160816  0.96685162  0.81656503     0.06900
C235        C  0.20340676  0.96015489  0.83412287     0.00700
H236        H  0.27376131  0.99036380  0.80415084     0.08400
H237        H  0.17157276  0.95275136  0.84003800     0.07500
N238        N  0.38980245  0.02741327  0.85478555    -0.36400
N239        N  0.39002321  0.03776823  0.87163098    -0.28500
C240        C  0.43074907  0.05257205  0.87620820    -0.03800
C241        C  0.45772700  0.05103760  0.86167888     0.04800
C242        C  0.43063706  0.03526594  0.84827136     0.02900
H243        H  0.44012148  0.06342289  0.88923419     0.08000
H244        H  0.43934956  0.03096866  0.83467613     0.06900
C245        C  0.04310130  0.50596508  0.64564659    -0.26600
C246        C  0.00479268  0.51861733  0.63615245    -0.14600
C247        C  0.98027177  0.48625143  0.62688855     0.36000
C248        C  0.99442363  0.44193477  0.62724136    -0.26000
C249        C  0.03253556  0.42919167  0.63681945    -0.15200
C250        C  0.05754934  0.46161155  0.64593625     0.37100
N251        N  0.09799661  0.44966380  0.65507235    -0.89500
H252        H  0.06237231  0.53094445  0.65257561     0.18200
H253        H  0.97486091  0.41719236  0.62029657     0.18200
N254        N  0.94013185  0.49786418  0.61762658    -0.88500
H255        H  0.11228269  0.47747441  0.66110271     0.35600
H256        H  0.12077934  0.43891265  0.64572653     0.40700
H257        H  0.91398442  0.47905610  0.62282819     0.40300
H258        H  0.94384862  0.48887976  0.60450640     0.35200
C259        C  0.58279923  0.05330633  0.85421591    -0.26600
C260        C  0.59437162  0.09426094  0.86173953    -0.14600
C261        C  0.56057693  0.12135822  0.86872898     0.36000
C262        C  0.51633049  0.10663204  0.86834320    -0.26000
C263        C  0.50472707  0.06557772  0.86090311    -0.15200
C264        C  0.53851177  0.03860575  0.85379109     0.37100
N265        N  0.52928320  0.99545476  0.84675896    -0.89500
H266        H  0.60852262  0.03220138  0.84888291     0.18200
H267        H  0.49067741  0.12765374  0.87377645     0.18200
N268        N  0.56984384  0.16460819  0.87566817    -0.88500
H269        H  0.50864485  0.99896670  0.83574187     0.35600
H270        H  0.51270865  0.97656645  0.85623159     0.40700
H271        H  0.58635486  0.18333148  0.86611741     0.40300
H272        H  0.59061770  0.16132419  0.88664796     0.35200
C273        C  0.59566573  0.02322976  0.12164449    -0.26600
C274        C  0.60814418  0.04057915  0.13802306    -0.14600
C275        C  0.57796679  0.03795148  0.15202317     0.36000
C276        C  0.53575952  0.01898912  0.14930739    -0.26000
C277        C  0.52285919  0.00268546  0.13279347    -0.15200
C278        C  0.55355302  0.00411996  0.11894734     0.37100
N279        N  0.54261741  0.98535166  0.10223659    -0.89500
H280        H  0.61888036  0.02400220  0.11085971     0.18200
H281        H  0.51253961  0.01840685  0.16008737     0.18200
N282        N  0.58923034  0.05597903  0.16882990    -0.88500
H283        H  0.56605705  0.96070449  0.09952446     0.35600
H284        H  0.54561512  0.01037819  0.09274039     0.40700
H285        H  0.58670134  0.03045242  0.17814128     0.40300
H286        H  0.56568973  0.08028984  0.17184293     0.35200
C287        C  0.96997358  0.16124919  0.95357786    -0.26600
C288        C  0.95526377  0.12817029  0.96527630    -0.14600
C289        C  0.91247094  0.10906996  0.96262410     0.36000
C290        C  0.88690172  0.12150212  0.94797956    -0.26000
C291        C  0.90321869  0.15195248  0.93558700    -0.15200
C292        C  0.94446339  0.17327086  0.93874326     0.37100
N293        N  0.96048431  0.20666727  0.92678453    -0.89500
H294        H  0.00234771  0.17657529  0.95561119     0.18200
H295        H  0.85501024  0.10531028  0.94582101     0.18200
N296        N  0.89392640  0.07700027  0.97447579    -0.88500
H297        H  0.99147312  0.21892072  0.93094896     0.35600
H298        H  0.93825908  0.23337881  0.92712360     0.40700
H299        H  0.89494844  0.09004664  0.98714718     0.40300
H300        H  0.91280500  0.04789589  0.97410258     0.35200
C301        C  0.92894380  0.08548186  0.04751936    -0.26600
C302        C  0.96470807  0.11413955  0.04372378    -0.14600
C303        C  0.97254118  0.15131398  0.05466719     0.36000
C304        C  0.94377317  0.15933748  0.06872834    -0.26000
C305        C  0.90780357  0.13093544  0.07229301    -0.15200
C306        C  0.90073284  0.09324344  0.06160384     0.37100
N307        N  0.86668308  0.06098893  0.06511323    -0.89500
H308        H  0.92277168  0.05640572  0.03952066     0.18200
H309        H  0.94988767  0.18759074  0.07718399     0.18200
N310        N  0.01008269  0.18022186  0.05181797    -0.88500
H311        H  0.83553038  0.07567194  0.06320567     0.35600
H312        H  0.86991589  0.05008041  0.07810475     0.40700
H313        H  0.03895613  0.16180391  0.05445654     0.40300
H314        H  0.01016247  0.20647495  0.06074160     0.35200
C315        C  0.16179640  0.99811636  0.94110387    -0.26600
C316        C  0.19455032  0.02918485  0.93631510    -0.14600
C317        C  0.19630046  0.07043836  0.94493750     0.36000
C318        C  0.16513465  0.08004699  0.95791915    -0.26000
C319        C  0.13161659  0.04942339  0.96251834    -0.15200
C320        C  0.13015702  0.00769851  0.95398370     0.37100
N321        N  0.09660606  0.97521115  0.95821822    -0.89500
H322        H  0.16047835  0.96623606  0.93457541     0.18200
H323        H  0.16712259  0.11209363  0.96430048     0.18200
N324        N  0.22851306  0.10347751  0.94017009    -0.88500
H325        H  0.10181654  0.94567331  0.95137994     0.35600
H326        H  0.06596450  0.98767462  0.95376929     0.40700
H327        H  0.24729493  0.11136825  0.95135408     0.40300
H328        H  0.21142855  0.13208517  0.93611822     0.35200
C329        C  0.20430680  0.04113665  0.05650826    -0.26600
C330        C  0.20343108  0.99529030  0.05993738    -0.14600
C331        C  0.17150843  0.96844965  0.05149566     0.36000
C332        C  0.14052591  0.98781409  0.03996480    -0.26000
C333        C  0.14033810  0.03396659  0.03676903    -0.15200
C334        C  0.17284806  0.06079999  0.04515748     0.37100
N335        N  0.17367118  0.10801128  0.04254336    -0.89500
H336        H  0.22854270  0.06207882  0.06314231     0.18200
H337        H  0.11637182  0.96635521  0.03355973     0.18200
N338        N  0.17081136  0.92134658  0.05443802    -0.88500
H339        H  0.20500095  0.11679955  0.03770112     0.35600
H340        H  0.16992819  0.12318929  0.05473162     0.40700
H341        H  0.17489924  0.90565551  0.04236893     0.40300
H342        H  0.13937954  0.91268152  0.05920638     0.35200
C343        C  0.02771142  0.44875077  0.37532414    -0.26600
C344        C  0.05900808  0.43450060  0.36305718    -0.14600
C345        C  0.07504476  0.46496340  0.35051888     0.36000
C346        C  0.05947192  0.50898545  0.35043577    -0.26000
C347        C  0.02790191  0.52330115  0.36267667    -0.15200
C348        C  0.01162504  0.49245333  0.37511457     0.37100
N349        N  0.97752088  0.50462513  0.38716246    -0.89500
H350        H  0.01451369  0.42544454  0.38485406     0.18200
H351        H  0.07273157  0.53215493  0.34088123     0.18200
N352        N  0.10800260  0.45171335  0.33815773    -0.88500
H353        H  0.98967023  0.49908947  0.39988466     0.35600
H354        H  0.95013138  0.48360912  0.38514295     0.40700
H355        H  0.13594228  0.47218681  0.33980941     0.40300
H356        H  0.09508461  0.45727733  0.32555056     0.35200
C357        C  0.03075000  0.92002422  0.28534219    -0.26600
C358        C  0.03317140  0.90466127  0.26807694    -0.14600
C359        C  0.01848185  0.86088407  0.26419945     0.36000
C360        C  0.00399935  0.83321657  0.27788786    -0.26000
C361        C  0.00207217  0.84844443  0.29521518    -0.15200
C362        C  0.01571434  0.89247182  0.29897185     0.37100
N363        N  0.01614407  0.90863274  0.31666683    -0.89500
H364        H  0.04246272  0.95326368  0.28837006     0.18200
H365        H  0.99317365  0.79969244  0.27485147     0.18200
N366        N  0.01686976  0.84353781  0.24666126    -0.88500
H367        H  0.02661326  0.94181567  0.31709302     0.35600
H368        H  0.03986907  0.89021132  0.32372719     0.40700
H369        H  0.02443680  0.86787068  0.23737204     0.40300
H370        H  0.98382524  0.83445969  0.24397585     0.35200
C371        C  0.00123855  0.06101262  0.22200164    -0.26600
C372        C  0.99681997  0.01578556  0.22614349    -0.14600
C373        C  0.95814180  0.99237015  0.22077552     0.36000
C374        C  0.92567027  0.01450147  0.21070983    -0.26000
C375        C  0.93129279  0.05915206  0.20566588    -0.15200
C376        C  0.96873982  0.08307505  0.21186499     0.37100
N377        N  0.97393078  0.12943916  0.20762290    -0.89500
H378        H  0.03101293  0.07871375  0.22617010     0.18200
H379        H  0.89692760  0.99591415  0.20606865     0.18200
N380        N  0.95128305  0.94606677  0.22477044    -0.88500
H381        H  0.00342903  0.14199558  0.21312047     0.35600
H382        H  0.94771213  0.14655142  0.21345973     0.40700
H383        H  0.97664939  0.93334283  0.23275833     0.40300
H384        H  0.95223830  0.92857963  0.21297405     0.35200
C385        C  0.06341966  0.07911659  0.27128429    -0.26600
C386        C  0.09084341  0.04145176  0.27184088    -0.14600
C387        C  0.12061923  0.03539685  0.28597763     0.36000
C388        C  0.12260272  0.06703250  0.29935254    -0.26000
C389        C  0.09512233  0.10487985  0.29897284    -0.15200
C390        C  0.06522317  0.11105685  0.28469554     0.37100
N391        N  0.03594765  0.14881018  0.28405543    -0.89500
H392        H  0.04029644  0.08340213  0.26040005     0.18200
H393        H  0.14575589  0.06171927  0.31015345     0.18200
N394        N  0.14785268  0.99637989  0.28707956    -0.88500
H395        H  0.01374609  0.14568630  0.29446922     0.35600
H396        H  0.01663986  0.14858621  0.27256195     0.40700
H397        H  0.14022600  0.97959928  0.29872049     0.40300
H398        H  0.18120507  0.00648046  0.28780730     0.35200
C399        C  0.18851945  0.96356408  0.22115711    -0.26600
C400        C  0.14587711  0.94357950  0.22121971    -0.14600
C401        C  0.13618823  0.91168094  0.20788536     0.36000
C402        C  0.16697384  0.90385032  0.19463960    -0.26000
C403        C  0.20793799  0.92617200  0.19410117    -0.15200
C404        C  0.21911163  0.95555610  0.20777459     0.37100
N405        N  0.26044766  0.97950888  0.20772828    -0.89500
H406        H  0.19858518  0.98726653  0.23092413     0.18200
H407        H  0.15831864  0.88030628  0.18444729     0.18200
N408        N  0.09537486  0.88670699  0.20706875    -0.88500
H409        H  0.27757518  0.97215140  0.21939393     0.35600
H410        H  0.25335490  0.01354586  0.20757750     0.40700
H411        H  0.06791852  0.90781797  0.20623355     0.40300
H412        H  0.09296069  0.86614809  0.21806828     0.35200
C413        C  0.97795466  0.01447336  0.79305279    -0.26600
C414        C  0.96748165  0.01990138  0.77527450    -0.14600
C415        C  0.93000195  0.04536757  0.77024717     0.36000
C416        C  0.90479234  0.06637567  0.78310258    -0.26000
C417        C  0.91646525  0.06263810  0.80093030    -0.15200
C418        C  0.95295121  0.03559271  0.80598696     0.37100
N419        N  0.96375715  0.02859093  0.82419786    -0.89500
H420        H  0.00489239  0.99251471  0.79688585     0.18200
H421        H  0.87645062  0.08646397  0.77911268     0.18200
N422        N  0.91726965  0.05090522  0.75222035    -0.88500
H423        H  0.99182685  0.00823933  0.82560588     0.35600
H424        H  0.93714289  0.01136274  0.82984218     0.40700
H425        H  0.91032098  0.01961261  0.74695951     0.40300
H426        H  0.94422259  0.06462798  0.74548740     0.35200
C427        C  0.10500482  0.99423897  0.79207648    -0.26600
C428        C  0.10820632  0.96708176  0.77727096    -0.14600
C429        C  0.14770460  0.94252866  0.77470280     0.36000
C430        C  0.18196954  0.94378824  0.78740510    -0.26000
C431        C  0.17736373  0.96916738  0.80261075    -0.15200
C432        C  0.13893694  0.99539140  0.80480403     0.37100
N433        N  0.13466228  0.02335334  0.81992295    -0.89500
H434        H  0.07587955  0.01464373  0.79387862     0.18200
H435        H  0.21184582  0.92423085  0.78554720     0.18200
N436        N  0.15374963  0.91735196  0.75903815    -0.88500
H437        H  0.10419467  0.04021195  0.81963738     0.35600
H438        H  0.15963846  0.04761835  0.81926504     0.40700
H439        H  0.18217828  0.92939251  0.75274258     0.40300
H440        H  0.15957782  0.88423817  0.76262487     0.35200
C441        C  0.02428042  0.84219319  0.70986451    -0.26600
C442        C  0.97926620  0.83356926  0.70639362    -0.14600
C443        C  0.94633757  0.85500089  0.71622139     0.36000
C444        C  0.95887966  0.88606402  0.72888490    -0.26000
C445        C  0.00412381  0.89721592  0.73182018    -0.15200
C446        C  0.03699432  0.87417641  0.72221305     0.37100
N447        N  0.08336670  0.88478347  0.72429682    -0.89500
H448        H  0.04970349  0.82588103  0.70222946     0.18200
H449        H  0.93226220  0.90290296  0.73546407     0.18200
N450        N  0.89980461  0.84617414  0.71346582    -0.88500
H451        H  0.09556364  0.89527669  0.71216219     0.35600
H452        H  0.10025968  0.85575823  0.72798062     0.40700
H453        H  0.89436930  0.81205907  0.71515826     0.40300
H454        H  0.89124361  0.85482628  0.70058527     0.35200
C455        C  0.04662565  0.08925328  0.72901818    -0.26600
C456        C  0.07007904  0.04914055  0.73007386    -0.14600
C457        C  0.10930654  0.04353515  0.72019789     0.36000
C458        C  0.12154279  0.07661494  0.70822879    -0.26000
C459        C  0.09600929  0.11529347  0.70602994    -0.15200
C460        C  0.05874038  0.12233108  0.71687130     0.37100
N461        N  0.03145124  0.16125644  0.71468531    -0.89500
H462        H  0.01682009  0.09334535  0.73673568     0.18200
H463        H  0.15050201  0.07133535  0.70011391     0.18200
N464        N  0.13668126  0.00437085  0.72156758    -0.88500
H465        H  0.00573519  0.16138322  0.72383943     0.35600
H466        H  0.01612389  0.15940735  0.70233701     0.40700
H467        H  0.12561445  0.98287949  0.73139659     0.40300
H468        H  0.16856424  0.01456799  0.72553196     0.35200
C469        C  0.93833819  0.85584251  0.46003463    -0.26600
C470        C  0.97201768  0.88809517  0.45856390    -0.14600
C471        C  0.99528756  0.89295497  0.44259632     0.36000
C472        C  0.98463390  0.86484271  0.42864338    -0.26000
C473        C  0.95141030  0.83224619  0.43016854    -0.15200
C474        C  0.92812296  0.82758918  0.44604001     0.37100
N475        N  0.89344901  0.79520144  0.44813928    -0.89500
H476        H  0.92030506  0.85224630  0.47220656     0.18200
H477        H  0.00256531  0.86851423  0.41644850     0.18200
N478        N  0.02924681  0.92619553  0.43988797    -0.88500
H479        H  0.90705338  0.76360939  0.44636402     0.35600
H480        H  0.86925407  0.80064105  0.43839939     0.40700
H481        H  0.03361472  0.94665459  0.45075477     0.40300
H482        H  0.01835826  0.94703414  0.42970044     0.35200
C483        C  0.97176076  0.81478738  0.55492821    -0.26600
C484        C  0.94029550  0.82993981  0.56699020    -0.14600
C485        C  0.91817493  0.87048729  0.56376316     0.36000
C486        C  0.92886209  0.89580188  0.54890042    -0.26000
C487        C  0.96168928  0.88155766  0.53721940    -0.15200
C488        C  0.98267158  0.84008080  0.54005805     0.37100
N489        N  0.01511461  0.82388151  0.52791629    -0.89500
H490        H  0.98889016  0.78363823  0.55733402     0.18200
H491        H  0.91239676  0.92748501  0.54683504     0.18200
N492        N  0.88465913  0.88599753  0.57546949    -0.88500
H493        H  0.99864704  0.81837837  0.51597427     0.35600
H494        H  0.02772613  0.79312318  0.53205276     0.40700
H495        H  0.85496554  0.88992782  0.56832798     0.40300
H496        H  0.89445010  0.91726075  0.58006999     0.35200
C497        C  0.10434169  0.08884221  0.44297923    -0.26600
C498        C  0.07586667  0.12317376  0.43752080    -0.14600
C499        C  0.03343041  0.12708368  0.44523957     0.36000
C500        C  0.02036600  0.09642197  0.45805611    -0.30400
C501        C  0.04855826  0.06142400  0.46336522    -0.15200
C502        C  0.09126628  0.05806924  0.45578484     0.37100
N503        N  0.12115484  0.02285020  0.46060418    -0.89500
H504        H  0.13669747  0.08523202  0.43693905     0.18200
H505        H  0.98746889  0.09965735  0.46364760     0.18200
N506        N  0.00193713  0.16018725  0.43970785    -0.88500
H507        H  0.15081114  0.03707220  0.46525488     0.35600
H508        H  0.12841183  0.00473186  0.44933316     0.40700
H509        H  0.99681673  0.15747008  0.42618305     0.40300
H510        H  0.01506132  0.19156945  0.44250790     0.35200
C511        C  0.09018070  0.08995944  0.55964363    -0.26600
C512        C  0.05530862  0.11145847  0.56819277    -0.14600
C513        C  0.01095024  0.10453663  0.56251557     0.36000
C514        C  0.00236083  0.07666644  0.54833107    -0.26000
C515        C  0.03712096  0.05506560  0.53959372    -0.15200
C516        C  0.08173494  0.06222069  0.54522643     0.37100
N517        N  0.11828501  0.04170521  0.53631405    -0.89500
H518        H  0.12418151  0.09530204  0.56413240     0.18200
H519        H  0.96797352  0.07121435  0.54437400     0.18200
N520        N  0.97382560  0.12369752  0.57138712    -0.88500
H521        H  0.14864235  0.04964552  0.54241385     0.35600
H522        H  0.11947940  0.05541856  0.52369804     0.40700
H523        H  0.97608448  0.15828776  0.57050268     0.40300
H524        H  0.97546792  0.11427754  0.58459447     0.35200
loop_ 
_geom_bond_atom_site_label_1 
_geom_bond_atom_site_label_2 
_geom_bond_distance 
_geom_bond_site_symmetry_2 
_ccdc_geom_bond_type 
O1           Cu9   1.994       .  S
O1           C11   1.276   1_455  A
O2           Cu9   1.992       .  S
O2           C12   1.276   1_565  A
O3           Cu9   1.998       .  S
O3           C13   1.276   1_565  A
O4           Cu9   1.998       .  S
O4           C14   1.276   1_455  A
O5          Cu10   2.006       .  S
O5           C14   1.277       .  A
O6          Cu10   1.999   1_545  S
O6           C13   1.278   1_655  A
O7          Cu10   2.008   1_545  S
O7           C12   1.279   1_655  A
O8          Cu10   2.005       .  S
O8           C11   1.278       .  A
Cu9         Cu10   2.372   1_455  S
C11         C487   1.477       .  S
C12         C501   1.484       .  S
C13         C515   1.482       .  S
C14         C470   1.466       .  S
C15          C16   1.543       .  S
C15          C21   1.533       .  S
C15          C19   1.543   1_455  S
C15         C445   1.529       .  S
C16          H23   1.085       .  S
C16          C17   1.370       .  D
C17          C18   1.539   1_565  S
C17         C428   1.487       .  S
C18          C22   1.527       .  S
C18          C20   1.536   1_445  S
C18          H24   1.110       .  S
C19          H25   1.082       .  S
C19          C20   1.361       .  D
C20         C414   1.473   1_565  S
C21          H26   1.087       .  S
C21          C22   1.359   1_565  D
C22         C456   1.471       .  S
C27          C28   1.553       .  S
C27          C33   1.536       .  S
C27          C31   1.537       .  S
C27         C400   1.538       .  S
C28          H35   1.080   1_565  S
C28          C29   1.367   1_565  D
C29          C30   1.533   1_545  S
C29         C386   1.478       .  S
C30          C34   1.528       .  S
C30          C32   1.539       .  S
C30          H36   1.111       .  S
C31          H37   1.085       .  S
C31          C32   1.366       .  D
C32         C358   1.483       .  S
C33          H38   1.087       .  S
C33          C34   1.358       .  D
C34         C372   1.472   1_465  S
N39          N40   1.321       .  A
N39          C43   1.345       .  A
N39         Cu47   2.067       .  S
N40          C41   1.341       .  A
N40         Cu46   2.061       .  S
C41          C42   1.381       .  A
C41          H44   1.082       .  S
C42         C473   1.470       .  S
C42          C43   1.383       .  A
C43          H45   1.082       .  S
Cu46         N49   2.060       .  S
Cu47         N57   2.068       .  S
Cu48         N50   2.079       .  S
Cu48         N56   2.079       .  S
N49          N50   1.321       .  A
N49          C53   1.342       .  A
N50          C51   1.346       .  A
C51          C52   1.388       .  A
C51          H54   1.082   1_655  S
C52         C361   1.484   1_655  S
C52          C53   1.384       .  A
C53          H55   1.081       .  S
N56          N57   1.322       .  A
N56          C60   1.345   1_655  A
N57          C58   1.343       .  A
C58          C59   1.386   1_655  A
C58          H61   1.081       .  S
C59         C347   1.486       .  S
C59          C60   1.387       .  A
C60          H62   1.082       .  S
O63         Cu71   2.009       .  S
O63          C73   1.278       .  A
O64         Cu71   2.013   1_556  S
O64          C74   1.279   1_455  A
O65         Cu71   2.006       .  S
O65          C75   1.277   1_455  A
O66         Cu71   2.002   1_556  S
O66          C76   1.278       .  A
O67         Cu72   2.002   1_556  S
O67          C76   1.277       .  A
O68         Cu72   2.001   1_655  S
O68          C75   1.278       .  A
O69         Cu72   1.998   1_656  S
O69          C74   1.276       .  A
O70         Cu72   1.990       .  S
O70          C73   1.277       .  A
Cu71        Cu72   2.366       .  S
C73         C333   1.484       .  S
C74         C288   1.482       .  S
C75         C302   1.486       .  S
C76         C319   1.487       .  S
N77          N78   1.321       .  A
N77          C81   1.343       .  A
N77         Cu85   2.061       .  S
N78          C79   1.343       .  A
N78         Cu84   2.067       .  S
C79          C80   1.383       .  A
C79          H82   1.082       .  S
C80         C305   1.478       .  S
C80          C81   1.384       .  A
C81          H83   1.080       .  S
Cu84         N87   2.067       .  S
Cu85         N95   2.061       .  S
Cu86         N88   2.068       .  S
Cu86         N94   2.067       .  S
N87          N88   1.321       .  A
N87          C91   1.343       .  A
N88          C89   1.345       .  A
C89          C90   1.384       .  A
C89          H92   1.082       .  S
C90         C375   1.479       .  S
C90          C91   1.384       .  A
C91          H93   1.082       .  S
N94          N95   1.321       .  A
N94          C98   1.344       .  A
N95          C96   1.341       .  A
C96          C97   1.383       .  A
C96          H99   1.082       .  S
C97         C274   1.477       .  S
C97          C98   1.385       .  A
C98         H100   1.081       .  S
N101        N102   1.320       .  A
N101        C105   1.345       .  A
N101       Cu109   2.067       .  S
N102        C103   1.340       .  A
N102       Cu108   2.055       .  S
C103        C104   1.380       .  A
C103        H106   1.082       .  S
C104        C498   1.473       .  S
C104        C105   1.385       .  A
C105        H107   1.081       .  S
Cu108       N111   2.056       .  S
Cu109       N119   2.068       .  S
Cu110       N112   2.084       .  S
Cu110       N118   2.084       .  S
N111        N112   1.321       .  A
N111        C115   1.340       .  A
N112        C113   1.348       .  A
C113        C114   1.391       .  A
C113        H116   1.081       .  S
C114        C389   1.485       .  S
C114        C115   1.383       .  A
C115        H117   1.082       .  S
N118        N119   1.323       .  A
N118        C122   1.347       .  A
N119        C120   1.342       .  A
C120        C121   1.382       .  A
C120        H123   1.082       .  S
C121        C344   1.479       .  S
C121        C122   1.386       .  A
C122        H124   1.082       .  S
N125        N126   1.322       .  A
N125        C129   1.345       .  A
N125       Cu133   2.068       .  S
N126        C127   1.342       .  A
N126       Cu132   2.066       .  S
C127        C128   1.381       .  A
C127        H130   1.082       .  S
C128        C330   1.471       .  S
C128        C129   1.383       .  A
C129        H131   1.082   1_565  S
Cu132       N135   2.067       .  S
Cu133       N143   2.068       .  S
Cu134       N136   2.058       .  S
Cu134       N142   2.058       .  S
N135        N136   1.319       .  A
N135        C139   1.343       .  A
N136        C137   1.343       .  A
C137        C138   1.386       .  A
C137        H140   1.081       .  S
C138        C403   1.484       .  S
C138        C139   1.387       .  A
C139        H141   1.082       .  S
N142        N143   1.321       .  A
N142        C146   1.341       .  A
N143        C144   1.343       .  A
C144        C145   1.386       .  A
C144        H147   1.081   1_565  S
C145        C277   1.478   1_565  S
C145        C146   1.383       .  A
C146        H148   1.082       .  S
N149        N150   1.321       .  A
N149        C153   1.345       .  A
N149       Cu157   2.072       .  S
N150        C151   1.343       .  A
N150       Cu156   2.069       .  S
C151        C152   1.385       .  A
C151        H154   1.082       .  S
C152        C291   1.480       .  S
C152        C153   1.386       .  A
C153        H155   1.082       .  S
Cu156       N159   2.069       .  S
Cu157       N167   2.072       .  S
Cu158       N160   2.065       .  S
Cu158       N166   2.065       .  S
N159        N160   1.321       .  A
N159        C163   1.342       .  A
N160        C161   1.345       .  A
C161        C162   1.383       .  A
C161        H164   1.082       .  S
C162        C417   1.478       .  S
C162        C163   1.384       .  A
C163        H165   1.082       .  S
N166        N167   1.322       .  A
N166        C170   1.343       .  A
N167        C168   1.344       .  A
C168        C169   1.384       .  A
C168        H171   1.081       .  S
C169        C260   1.475       .  S
C169        C170   1.382       .  A
C170        H172   1.082       .  S
N173        N174   1.321       .  A
N173        C177   1.342       .  A
N173       Cu181   2.066       .  S
N174        C175   1.343       .  A
N174       Cu180   2.063       .  S
C175        C176   1.384       .  A
C175        H178   1.082       .  S
C176        C484   1.478       .  S
C176        C177   1.384       .  A
C177        H179   1.082       .  S
Cu180       N183   2.063       .  S
Cu181       N191   2.066       .  S
Cu182       N184   2.058       .  S
Cu182       N190   2.058       .  S
N183        N184   1.321       .  A
N183        C187   1.342       .  A
N184        C185   1.344       .  A
C185        C186   1.380       .  A
C185        H188   1.082       .  S
C186        C442   1.465       .  S
C186        C187   1.380       .  A
C187        H189   1.082       .  S
N190        N191   1.321       .  A
N190        C194   1.341       .  A
N191        C192   1.344       .  A
C192        C193   1.384       .  A
C192        H195   1.082       .  S
C193        C246   1.474   1_655  S
C193        C194   1.381       .  A
C194        H196   1.082   1_655  S
N197        N198   1.321       .  A
N197        C201   1.343       .  A
N197       Cu205   2.061       .  S
N198        C199   1.343       .  A
N198       Cu204   2.063       .  S
C199        C200   1.380       .  A
C199        H202   1.082       .  S
C200        C512   1.469       .  S
C200        C201   1.381       .  A
C201        H203   1.082       .  S
Cu204       N207   2.064       .  S
Cu205       N215   2.061       .  S
Cu206       N208   2.066       .  S
Cu206       N214   2.066       .  S
N207        N208   1.321       .  A
N207        C211   1.340       .  A
N208        C209   1.345       .  A
C209        C210   1.385       .  A
C209        H212   1.082       .  S
C210        C459   1.476       .  S
C210        C211   1.382       .  A
C211        H213   1.082       .  S
N214        N215   1.322       .  A
N214        C218   1.344       .  A
N215        C216   1.341       .  A
C216        C217   1.381       .  A
C216        H219   1.082       .  S
C217        C249   1.474       .  S
C217        C218   1.384       .  A
C218        H220   1.082       .  S
N221        N222   1.318   1_545  A
N221        C225   1.345       .  A
N221       Cu229   2.067       .  S
N222        C223   1.340       .  A
N222       Cu228   2.054       .  S
C223        C224   1.383   1_565  A
C223        H226   1.082       .  S
C224        C316   1.481       .  S
C224        C225   1.389       .  A
C225        H227   1.081       .  S
Cu228       N231   2.053       .  S
Cu229       N239   2.069       .  S
Cu230       N232   2.081   1_545  S
Cu230       N238   2.083       .  S
N231        N232   1.321       .  A
N231        C235   1.339       .  A
N232        C233   1.349       .  A
C233        C234   1.386       .  A
C233        H236   1.082       .  S
C234        C431   1.473       .  S
C234        C235   1.378       .  A
C235        H237   1.082       .  S
N238        N239   1.324       .  A
N238        C242   1.346       .  A
N239        C240   1.342       .  A
C240        C241   1.380       .  A
C240        H243   1.082       .  S
C241        C263   1.476       .  S
C241        C242   1.385       .  A
C242        H244   1.081       .  S
C245        C246   1.404       .  A
C245        C250   1.403       .  A
C245        H252   1.083       .  S
C246        C247   1.408   1_455  A
C247        C248   1.399       .  A
C247        N254   1.432       .  S
C248        C249   1.403   1_655  A
C248        H253   1.084       .  S
C249        C250   1.411       .  A
C250        N251   1.438       .  S
N251        H255   1.046       .  S
N251        H256   1.046       .  S
N254        H257   1.046       .  S
N254        H258   1.046       .  S
C259        C260   1.403       .  A
C259        C264   1.399       .  A
C259        H266   1.084       .  S
C260        C261   1.413       .  A
C261        C262   1.398       .  A
C261        N268   1.432       .  S
C262        C263   1.403       .  A
C262        H267   1.084       .  S
C263        C264   1.414       .  A
C264        N265   1.432   1_545  S
N265        H269   1.044       .  S
N265        H270   1.045       .  S
N268        H271   1.046       .  S
N268        H272   1.043       .  S
C273        C274   1.404       .  A
C273        C278   1.400       .  A
C273        H280   1.083       .  S
C274        C275   1.409       .  A
C275        C276   1.401       .  A
C275        N282   1.432       .  S
C276        C277   1.405       .  A
C276        H281   1.083       .  S
C277        C278   1.409       .  A
C278        N279   1.432   1_545  S
N279        H283   1.046       .  S
N279        H284   1.046   1_565  S
N282        H285   1.046       .  S
N282        H286   1.046       .  S
C287        C288   1.405       .  A
C287        C292   1.405       .  A
C287        H294   1.084   1_655  S
C288        C289   1.418       .  A
C289        C290   1.398       .  A
C289        N296   1.433       .  S
C290        C291   1.403       .  A
C290        H295   1.083       .  S
C291        C292   1.411       .  A
C292        N293   1.438       .  S
N293        H297   1.046       .  S
N293        H298   1.045       .  S
N296        H299   1.046       .  S
N296        H300   1.044       .  S
C301        C302   1.405       .  A
C301        C306   1.396       .  A
C301        H308   1.084       .  S
C302        C303   1.417       .  A
C303        C304   1.406       .  A
C303        N310   1.438   1_655  S
C304        C305   1.402       .  A
C304        H309   1.084       .  S
C305        C306   1.415       .  A
C306        N307   1.432       .  S
N307        H311   1.043       .  S
N307        H312   1.046       .  S
N310        H313   1.046       .  S
N310        H314   1.046       .  S
C315        C316   1.403   1_565  A
C315        C320   1.405   1_565  A
C315        H322   1.083       .  S
C316        C317   1.408       .  A
C317        C318   1.401       .  A
C317        N324   1.432       .  S
C318        C319   1.407       .  A
C318        H323   1.083       .  S
C319        C320   1.417       .  A
C320        N321   1.438   1_545  S
N321        H325   1.046       .  S
N321        H326   1.046       .  S
N324        H327   1.046       .  S
N324        H328   1.046       .  S
C329        C330   1.402   1_545  A
C329        C334   1.403       .  A
C329        H336   1.084       .  S
C330        C331   1.404       .  A
C331        C332   1.398       .  A
C331        N338   1.433       .  S
C332        C333   1.407   1_565  A
C332        H337   1.083       .  S
C333        C334   1.414       .  A
C334        N335   1.432       .  S
N335        H339   1.046       .  S
N335        H340   1.046       .  S
N338        H341   1.046       .  S
N338        H342   1.046       .  S
C343        C344   1.402       .  A
C343        C348   1.401       .  A
C343        H350   1.084       .  S
C344        C345   1.408       .  A
C345        C346   1.405       .  A
C345        N352   1.432       .  S
C346        C347   1.407       .  A
C346        H351   1.083       .  S
C347        C348   1.412       .  A
C348        N349   1.432   1_455  S
N349        H353   1.046       .  S
N349        H354   1.046       .  S
N352        H355   1.045       .  S
N352        H356   1.046       .  S
C357        C358   1.401       .  A
C357        C362   1.403       .  A
C357        H364   1.084       .  S
C358        C359   1.419       .  A
C359        C360   1.403       .  A
C359        N366   1.439       .  S
C360        C361   1.404       .  A
C360        H365   1.084   1_455  S
C361        C362   1.415       .  A
C362        N363   1.438       .  S
N363        H367   1.046       .  S
N363        H368   1.046       .  S
N366        H369   1.042       .  S
N366        H370   1.046   1_455  S
C371        C372   1.400   1_455  A
C371        C376   1.403   1_455  A
C371        H378   1.084       .  S
C372        C373   1.413   1_545  A
C373        C374   1.401   1_565  A
C373        N380   1.438       .  S
C374        C375   1.404       .  A
C374        H379   1.084   1_545  S
C375        C376   1.411       .  A
C376        N377   1.437       .  S
N377        H381   1.046   1_655  S
N377        H382   1.046       .  S
N380        H383   1.042       .  S
N380        H384   1.046       .  S
C385        C386   1.401       .  A
C385        C390   1.408       .  A
C385        H392   1.084       .  S
C386        C387   1.404       .  A
C387        C388   1.400       .  A
C387        N394   1.432   1_545  S
C388        C389   1.406       .  A
C388        H393   1.083       .  S
C389        C390   1.415       .  A
C390        N391   1.437       .  S
N391        H395   1.045       .  S
N391        H396   1.046       .  S
N394        H397   1.046       .  S
N394        H398   1.045   1_565  S
C399        C400   1.411       .  A
C399        C404   1.402       .  A
C399        H406   1.075       .  S
C400        C401   1.430       .  A
C401        C402   1.397       .  A
C401        N408   1.435       .  S
C402        C403   1.399       .  A
C402        H407   1.084       .  S
C403        C404   1.408       .  A
C404        N405   1.432       .  S
N405        H409   1.046       .  S
N405        H410   1.046   1_565  S
N408        H411   1.042       .  S
N408        H412   1.042       .  S
C413        C414   1.398       .  A
C413        C418   1.402       .  A
C413        H420   1.081   1_645  S
C414        C415   1.410       .  A
C415        C416   1.399       .  A
C415        N422   1.432       .  S
C416        C417   1.405       .  A
C416        H421   1.084       .  S
C417        C418   1.414       .  A
C418        N419   1.438       .  S
N419        H423   1.046       .  S
N419        H424   1.045       .  S
N422        H425   1.045       .  S
N422        H426   1.045       .  S
C427        C428   1.402       .  A
C427        C432   1.400       .  A
C427        H434   1.079   1_565  S
C428        C429   1.413       .  A
C429        C430   1.406       .  A
C429        N436   1.432       .  S
C430        C431   1.401       .  A
C430        H435   1.084       .  S
C431        C432   1.410       .  A
C432        N433   1.439   1_565  S
N433        H437   1.046       .  S
N433        H438   1.046       .  S
N436        H439   1.046       .  S
N436        H440   1.045       .  S
C441        C442   1.397   1_455  A
C441        C446   1.400       .  A
C441        H448   1.084       .  S
C442        C443   1.406       .  A
C443        C444   1.396       .  A
C443        N450   1.433       .  S
C444        C445   1.413   1_655  A
C444        H449   1.076       .  S
C445        C446   1.419       .  A
C446        N447   1.433       .  S
N447        H451   1.046       .  S
N447        H452   1.046       .  S
N450        H453   1.046       .  S
N450        H454   1.045       .  S
C455        C456   1.399       .  A
C455        C460   1.405       .  A
C455        H462   1.083       .  S
C456        C457   1.414       .  A
C457        C458   1.397       .  A
C457        N464   1.440       .  S
C458        C459   1.402       .  A
C458        H463   1.084       .  S
C459        C460   1.414       .  A
C460        N461   1.437       .  S
N461        H465   1.046       .  S
N461        H466   1.046       .  S
N464        H467   1.043   1_545  S
N464        H468   1.045       .  S
C469        C470   1.403       .  A
C469        C474   1.400       .  A
C469        H476   1.084       .  S
C470        C471   1.417       .  A
C471        C472   1.397       .  A
C471        N478   1.440   1_655  S
C472        C473   1.401       .  A
C472        H477   1.084   1_655  S
C473        C474   1.410       .  A
C474        N475   1.432       .  S
N475        H479   1.045       .  S
N475        H480   1.045       .  S
N478        H481   1.042       .  S
N478        H482   1.045       .  S
C483        C484   1.404       .  A
C483        C488   1.403       .  A
C483        H490   1.083       .  S
C484        C485   1.408       .  A
C485        C486   1.401       .  A
C485        N492   1.432       .  S
C486        C487   1.404       .  A
C486        H491   1.084       .  S
C487        C488   1.413       .  A
C488        N489   1.438   1_655  S
N489        H493   1.046   1_455  S
N489        H494   1.046       .  S
N492        H495   1.046       .  S
N492        H496   1.046       .  S
C497        C498   1.400       .  A
C497        C502   1.400       .  A
C497        H504   1.084       .  S
C498        C499   1.413       .  A
C499        C500   1.398       .  A
C499        N506   1.432       .  S
C500        C501   1.406       .  A
C500        H505   1.084   1_455  S
C501        C502   1.415       .  A
C502        N503   1.433       .  S
N503        H507   1.045       .  S
N503        H508   1.046       .  S
N506        H509   1.045   1_455  S
N506        H510   1.044       .  S
C511        C512   1.400       .  A
C511        C516   1.405       .  A
C511        H518   1.084       .  S
C512        C513   1.410       .  A
C513        C514   1.394       .  A
C513        N520   1.433   1_455  S
C514        C515   1.406       .  A
C514        H519   1.084   1_455  S
C515        C516   1.417       .  A
C516        N517   1.438       .  S
N517        H521   1.046       .  S
N517        H522   1.046       .  S
N520        H523   1.044       .  S
N520        H524   1.046       .  S
