geometry optimzed in LAMMPS
_audit_creation_date              2020-11-30 
_audit_creation_method            'lammps2cif' 
_symmetry_space_group_name_H-M    'P1' 
_symmetry_Int_Tables_number       1 
_symmetry_cell_setting            triclinic 
loop_ 
_symmetry_equiv_pos_as_xyz 
  x,y,z 
_cell_length_a                    28.83897054 
_cell_length_b                    28.83900070864269 
_cell_length_c                    35.2201402640853 
_cell_angle_alpha                 87.58802600315127 
_cell_angle_beta                  87.5855238694166 
_cell_angle_gamma                 127.6144678473754 
loop_ 
_atom_site_label 
_atom_site_type_symbol 
_atom_site_fract_x 
_atom_site_fract_y 
_atom_site_fract_z 
_atom_site_charge 
C1          C  0.33841706  0.16458871  0.33786272     0.49100
H2          H  0.33961260  0.16585270  0.30621857     0.00100
C3          C  0.33543563  0.16160581  0.41218941     0.49100
H4          H  0.33417138  0.16040951  0.44383356     0.00100
C5          C  0.36443800  0.13645140  0.35557607    -0.13600
C6          C  0.37186624  0.22549914  0.35330273    -0.13400
C7          C  0.27631369  0.12942083  0.35781225    -0.13800
C8          C  0.36357935  0.13559140  0.39447352    -0.13700
C9          C  0.37059678  0.22370929  0.39224121    -0.13300
C10         C  0.27452446  0.12815027  0.39675047    -0.13800
C11         C  0.15717155  0.33988279  0.16219210     0.49100
H12         H  0.15597601  0.33861903  0.19383624     0.00100
C13         C  0.16015320  0.34286520  0.08786541     0.49100
H14         H  0.16141742  0.34406115  0.05622126     0.00100
C15         C  0.21927499  0.37505084  0.14224267    -0.13600
C16         C  0.12372271  0.27897228  0.14675224    -0.13400
C17         C  0.13115034  0.36801967  0.14447848    -0.13800
C18         C  0.22106431  0.37632097  0.10330447    -0.13700
C19         C  0.12499213  0.28076187  0.10781377    -0.13300
C20         C  0.13200927  0.36887955  0.10558101    -0.13600
O21         O  0.39364681  0.37192282  0.46051084    -0.77300
O22         O  0.01016444  0.10122894  0.04082933    -0.61900
O23         O  0.47591380  0.49246329  0.46794778    -1.08600
C24         C  0.07230610  0.44726763  0.05052497     1.09600
O25         O  0.10194166  0.13254843  0.03954395    -0.75200
O26         O  0.14173056  0.08180615  0.50251036    -0.62700
Ni27       Ni  0.39928778  0.44134331  0.45047688     1.34900
C28         C  0.13039891  0.05613468  0.47208857     0.88400
O29         O  0.46059585  0.07905718  0.47451594    -0.75700
O30         O  0.39855484  0.00629279  0.43810834    -0.86000
C31         C  0.06264312  0.13790550  0.04908237     0.87900
O32         O  0.35385823  0.42266535  0.99754458    -0.64200
O33         O  0.09703481  0.49817833  0.06194535    -0.83500
C34         C  0.36519001  0.44833643  0.02796654     0.88800
C35         C  0.42328290  0.05720324  0.44952904     1.10300
H36         H  0.49309994  0.48919384  0.05453009     0.42100
O37         O  0.01967482  0.01200800  0.03210726    -1.06100
O38         O  0.08002180  0.00981969  0.46630929    -0.62800
Ni39       Ni  0.00510554  0.45807689  0.49596855     1.26300
O40         O  0.41556724  0.49465112  0.03374596    -0.63000
O41         O  0.03499242  0.42541349  0.02553859    -0.75300
C42         C  0.43294530  0.36656564  0.45097249     0.88200
O43         O  0.48542397  0.40324224  0.45922543    -0.62500
Ni44       Ni  0.09630094  0.06312816  0.04957812     1.27400
Ni45       Ni  0.49048309  0.04639421  0.00408618     1.26100
H46         H  0.50248881  0.01527686  0.44552483     0.42700
O47         O  0.12810132  0.10637534  0.28955288    -0.77300
O48         O  0.39881569  0.48987706  0.20921730    -0.61900
O49         O  0.00756374  0.02411782  0.28210581    -1.08600
C50         C  0.05276206  0.42772052  0.19953529     1.09600
O51         O  0.36748687  0.39809655  0.21050225    -0.75200
O52         O  0.41821472  0.35829736  0.24754196    -0.62700
Ni53       Ni  0.05868248  0.10074002  0.29958084     1.34900
C54         C  0.44388165  0.36962557  0.27796517     0.88400
O55         O  0.42097509  0.03943915  0.27553105    -0.75700
O56         O  0.49373330  0.10147598  0.31194329    -0.86000
C57         C  0.36213460  0.43739855  0.20096561     0.87900
O58         O  0.07737299  0.14617419  0.25251363    -0.64200
O59         O  0.00185391  0.40299406  0.18811199    -0.83500
C60         C  0.05170720  0.13484602  0.22208993     0.88800
C61         C  0.44282570  0.07675010  0.30051920     1.10300
H62         H  0.01084394  0.00692924  0.19552796     0.42100
O63         O  0.48802483  0.48035358  0.21794881    -1.06100
O64         O  0.49019733  0.42000136  0.28374648    -0.62800
Ni65       Ni  0.04194872  0.49492002  0.25409014     1.26300
O66         O  0.00539232  0.08447005  0.21630798    -0.63000
O67         O  0.07461356  0.46503226  0.22452293    -0.75300
C68         C  0.13345389  0.06707361  0.29908962     0.88200
O69         O  0.09677325  0.01459515  0.29083776    -0.62500
Ni70       Ni  0.43690525  0.40373097  0.20047443     1.27400
Ni71       Ni  0.45364032  0.00955139  0.24596423     1.26100
H72         H  0.48474401  0.99754154  0.30452704     0.42700
C73         C  0.07925297  0.18757956  0.06890930    -0.09600
C74         C  0.09822648  0.22966681  0.08668153    -0.11200
C75         C  0.27446174  0.40335477  0.07866604    -0.09600
C76         C  0.31743465  0.42435336  0.05682613    -0.11200
C77         C  0.10788512  0.39147330  0.08320603    -0.09600
C78         C  0.08897277  0.41360022  0.06696680    -0.11200
C79         C  0.09669375  0.22557578  0.17139076    -0.09600
C80         C  0.07569579  0.18260372  0.19323116    -0.11200
C81         C  0.31245992  0.42079252  0.18114251    -0.09600
C82         C  0.27037102  0.40181949  0.16337314    -0.11200
C83         C  0.10855734  0.39214264  0.16685526    -0.09600
C84         C  0.08643019  0.41105434  0.18309511    -0.11200
C85         C  0.40661617  0.09087054  0.43308714    -0.09600
C86         C  0.38770360  0.11299745  0.41684818    -0.11200
C87         C  0.41633549  0.31689149  0.43114572    -0.09600
C88         C  0.39736228  0.27480424  0.41337355    -0.11200
C89         C  0.22112713  0.10111628  0.42138906    -0.09600
C90         C  0.17815425  0.08011760  0.44322903    -0.11200
C91         C  0.40915718  0.09341604  0.31695913    -0.09600
C92         C  0.38703032  0.11232797  0.33319907    -0.11200
C93         C  0.39889540  0.27889583  0.32866434    -0.09600
C94         C  0.41989342  0.32186806  0.30682406    -0.11200
C95         C  0.18312857  0.08367981  0.31891274    -0.09600
C96         C  0.22521764  0.10265269  0.33668188    -0.11200
C97         C  0.33841704  0.16458873  0.83786269     0.49100
H98         H  0.33961249  0.16585278  0.80621854     0.00100
C99         C  0.33543563  0.16160575  0.91218938     0.49100
H100        H  0.33417147  0.16040954  0.94383353     0.00100
C101        C  0.36443789  0.13645131  0.85557602    -0.13600
C102        C  0.37186624  0.22549912  0.85330272    -0.13400
C103        C  0.27631372  0.12942093  0.85781224    -0.13800
C104        C  0.36357924  0.13559128  0.89447347    -0.13700
C105        C  0.37059683  0.22370922  0.89224119    -0.13300
C106        C  0.27452448  0.12815032  0.89675046    -0.13800
C107        C  0.15717161  0.33988281  0.66219209     0.49100
H108        H  0.15597611  0.33861911  0.69383623     0.00100
C109        C  0.16015322  0.34286515  0.58786541     0.49100
H110        H  0.16141750  0.34406116  0.55622126     0.00100
C111        C  0.21927502  0.37505084  0.64224266    -0.13600
C112        C  0.12372276  0.27897225  0.64675228    -0.13400
C113        C  0.13115035  0.36801963  0.64447846    -0.13800
C114        C  0.22106433  0.37632101  0.60330447    -0.13700
C115        C  0.12499218  0.28076182  0.60781378    -0.13300
C116        C  0.13200920  0.36887940  0.60558099    -0.13600
O117        O  0.39364678  0.37192286  0.96051076    -0.77300
O118        O  0.01016438  0.10122889  0.54082932    -0.61900
O119        O  0.47591395  0.49246338  0.96794772    -1.08600
C120        C  0.07230611  0.44726756  0.55052494     1.09600
O121        O  0.10194155  0.13254830  0.53954395    -0.75200
O122        O  0.14173054  0.08180612  0.00251038    -0.62700
Ni123      Ni  0.39928783  0.44134343  0.95047686     1.34900
C124        C  0.13039886  0.05613476  0.97208855     0.88400
O125        O  0.46059591  0.07905726  0.97451594    -0.75700
O126        O  0.39855497  0.00629293  0.93810830    -0.86000
C127        C  0.06264304  0.13790541  0.54908237     0.87900
O128        O  0.35385818  0.42266529  0.49754459    -0.64200
O129        O  0.09703482  0.49817828  0.56194535    -0.83500
C130        C  0.36518988  0.44833635  0.52796654     0.88800
C131        C  0.42328297  0.05720335  0.94952903     1.10300
H132        H  0.49310018  0.48919400  0.55453006     0.42100
O133        O  0.01967510  0.01200822  0.53210704    -1.06100
O134        O  0.08002175  0.00981983  0.96630924    -0.62800
Ni135      Ni  0.00510557  0.45807696  0.99596854     1.26300
O136        O  0.41556708  0.49465100  0.53374604    -0.63000
O137        O  0.03499247  0.42541348  0.52553854    -0.75300
C138        C  0.43294523  0.36656556  0.95097255     0.88200
O139        O  0.48542389  0.40324212  0.95922553    -0.62500
Ni140      Ni  0.09630093  0.06312810  0.54957809     1.27400
Ni141      Ni  0.49048307  0.04639419  0.50408617     1.26100
H142        H  0.50248931  0.01527737  0.94552451     0.42700
O143        O  0.12810137  0.10637538  0.78955286    -0.77300
O144        O  0.39881564  0.48987690  0.70921736    -0.61900
O145        O  0.00756371  0.02411771  0.78210575    -1.08600
C146        C  0.05276200  0.42772050  0.69953523     1.09600
O147        O  0.36748673  0.39809641  0.71050218    -0.75200
O148        O  0.41821449  0.35829744  0.74754203    -0.62700
Ni149      Ni  0.05868241  0.10073987  0.79958082     1.34900
C150        C  0.44388151  0.36962549  0.77796520     0.88400
O151        O  0.42097493  0.03943905  0.77553101    -0.75700
O152        O  0.49373305  0.10147565  0.81194336    -0.86000
C153        C  0.36213453  0.43739845  0.70096559     0.87900
O154        O  0.07737285  0.14617408  0.75251363    -0.64200
O155        O  0.00185379  0.40299401  0.68811201    -0.83500
C156        C  0.05170705  0.13484586  0.72208994     0.88800
C157        C  0.44282546  0.07674981  0.80051926     1.10300
H158        H  0.01084400  0.00692918  0.69552788     0.42100
O159        O  0.48802455  0.48035321  0.71794904    -1.06100
O160        O  0.49019738  0.42000119  0.78374649    -0.62800
Ni161      Ni  0.04194868  0.49491989  0.75409016     1.26300
O162        O  0.00539223  0.08446984  0.71630798    -0.63000
O163        O  0.07461355  0.46503225  0.72452286    -0.75300
C164        C  0.13345399  0.06707369  0.79908958     0.88200
O165        O  0.09677332  0.01459520  0.79083774    -0.62500
Ni166      Ni  0.43690517  0.40373088  0.70047444     1.27400
Ni167      Ni  0.45364021  0.00955124  0.74596421     1.26100
H168        H  0.48474401  0.99754144  0.80452701     0.42700
C169        C  0.07925296  0.18757953  0.56890926    -0.09600
C170        C  0.09822653  0.22966678  0.58668151    -0.11200
C171        C  0.27446173  0.40335480  0.57866604    -0.09600
C172        C  0.31743454  0.42435332  0.55682607    -0.11200
C173        C  0.10788496  0.39147302  0.58320600    -0.09600
C174        C  0.08897268  0.41360003  0.56696676    -0.11200
C175        C  0.09669377  0.22557576  0.67139085    -0.09600
C176        C  0.07569565  0.18260354  0.69323116    -0.11200
C177        C  0.31245995  0.42079255  0.68114246    -0.09600
C178        C  0.27037101  0.40181938  0.66337312    -0.11200
C179        C  0.10855726  0.39214252  0.66685525    -0.09600
C180        C  0.08643015  0.41105432  0.68309505    -0.11200
C181        C  0.40661617  0.09087062  0.93308717    -0.09600
C182        C  0.38770363  0.11299751  0.91684815    -0.11200
C183        C  0.41633540  0.31689134  0.93114578    -0.09600
C184        C  0.39736223  0.27480411  0.91337358    -0.11200
C185        C  0.22112714  0.10111639  0.92138906    -0.09600
C186        C  0.17815421  0.08011775  0.94322897    -0.11200
C187        C  0.40915703  0.09341585  0.81695919    -0.09600
C188        C  0.38703033  0.11232799  0.83319904    -0.11200
C189        C  0.39889514  0.27889579  0.82866438    -0.09600
C190        C  0.41989312  0.32186797  0.80682406    -0.11200
C191        C  0.18312868  0.08367993  0.81891270    -0.09600
C192        C  0.22521771  0.10265281  0.83668186    -0.11200
C193        C  0.33841786  0.66458812  0.33786284     0.49100
H194        H  0.33961358  0.66585192  0.30621870     0.00100
C195        C  0.33543589  0.66160559  0.41218953     0.49100
H196        H  0.33417146  0.66040957  0.44383370     0.00100
C197        C  0.36443888  0.63645112  0.35557655    -0.13600
C198        C  0.37186672  0.72549865  0.35330274    -0.13400
C199        C  0.27631437  0.62942014  0.35781215    -0.13800
C200        C  0.36357997  0.63559136  0.39447402    -0.13700
C201        C  0.37059701  0.72370893  0.39224123    -0.13300
C202        C  0.27452487  0.62814984  0.39675036    -0.13800
C203        C  0.15717179  0.83988354  0.16219212     0.49100
H204        H  0.15597673  0.83862002  0.19383625     0.00100
C205        C  0.16015246  0.84286553  0.08786548     0.49100
H206        H  0.16141633  0.84406134  0.05622134     0.00100
C207        C  0.21927494  0.87505128  0.14224235    -0.13600
C208        C  0.12372262  0.77897292  0.14675244    -0.13400
C209        C  0.13115052  0.86802047  0.14447875    -0.13800
C210        C  0.22106380  0.87632136  0.10330417    -0.13700
C211        C  0.12499167  0.78076229  0.10781399    -0.13300
C212        C  0.13200875  0.86887999  0.10558131    -0.13600
O213        O  0.39364614  0.87192234  0.46051050    -0.77300
O214        O  0.01016526  0.60122891  0.04083018    -0.61900
O215        O  0.47591270  0.99246259  0.46794737    -1.08600
C216        C  0.07230483  0.94726750  0.05052542     1.09600
O217        O  0.10194258  0.63254864  0.03954505    -0.75200
O218        O  0.14173134  0.58180714  0.50251004    -0.62700
Ni219      Ni  0.39928682  0.94134258  0.45047635     1.34900
C220        C  0.13039956  0.55613521  0.47208845     0.88400
O221        O  0.46059665  0.57905756  0.47451703    -0.75700
O222        O  0.39855600  0.50629367  0.43810908    -0.86000
C223        C  0.06264387  0.63790558  0.04908325     0.87900
O224        O  0.35385728  0.92266473  0.99754406    -0.64200
O225        O  0.09703287  0.99817793  0.06194614    -0.83500
C226        C  0.36518898  0.94833611  0.02796589     0.88800
C227        C  0.42328388  0.55720394  0.44953004     1.10300
H228        H  0.49309886  0.98919372  0.05452970     0.42100
O229        O  0.01967615  0.51200841  0.03210743    -1.06100
O230        O  0.08002252  0.50981984  0.46630952    -0.62800
Ni231      Ni  0.00510481  0.95807668  0.49596829     1.26300
O232        O  0.41556610  0.99465101  0.03374520    -0.63000
O233        O  0.03499191  0.92541361  0.02553853    -0.75300
C234        C  0.43294473  0.86656520  0.45097236     0.88200
O235        O  0.48542338  0.90324188  0.45922531    -0.62500
Ni236      Ni  0.09630223  0.56312836  0.04957817     1.27400
Ni237      Ni  0.49048416  0.54639451  0.00408686     1.26100
H238        H  0.50249001  0.51527787  0.44552532     0.42700
O239        O  0.12810285  0.60637539  0.28955200    -0.77300
O240        O  0.39881523  0.98987641  0.20921704    -0.61900
O241        O  0.00756505  0.52411817  0.28210540    -1.08600
C242        C  0.05276226  0.92772094  0.19953593     1.09600
O243        O  0.36748658  0.89809599  0.21050210    -0.75200
O244        O  0.41821465  0.85829702  0.24754194    -0.62700
Ni245      Ni  0.05868411  0.60074016  0.29958060     1.34900
C246        C  0.44388111  0.86962518  0.27796537     0.88400
O247        O  0.42097676  0.53944002  0.27553130    -0.75700
O248        O  0.49373501  0.60147596  0.31194383    -0.86000
C249        C  0.36213442  0.93739797  0.20096517     0.87900
O250        O  0.07737400  0.64617466  0.25251358    -0.64200
O251        O  0.00185437  0.90299458  0.18811221    -0.83500
C252        C  0.05170808  0.63484656  0.22208993     0.88800
C253        C  0.44282746  0.57675049  0.30051975     1.10300
H254        H  0.01084437  0.50692952  0.19552739     0.42100
O255        O  0.48802421  0.98035320  0.21794931    -1.06100
O256        O  0.49019634  0.92000116  0.28374701    -0.62800
Ni257      Ni  0.04194786  0.99491989  0.25409077     1.26300
O258        O  0.00539331  0.58447054  0.21630791    -0.63000
O259        O  0.07461320  0.96503233  0.22452380    -0.75300
C260        C  0.13345534  0.56707356  0.29908871     0.88200
O261        O  0.09677446  0.51459510  0.29083693    -0.62500
Ni262      Ni  0.43690528  0.90373089  0.20047450     1.27400
Ni263      Ni  0.45364135  0.50955194  0.24596413     1.26100
H264        H  0.48474543  0.49754189  0.30452667     0.42700
C265        C  0.07925347  0.68757980  0.06890989    -0.09600
C266        C  0.09822645  0.72966711  0.08668193    -0.11200
C267        C  0.27446095  0.90335487  0.07866550    -0.09600
C268        C  0.31743369  0.92435318  0.05682549    -0.11200
C269        C  0.10788407  0.89147340  0.08320656    -0.09600
C270        C  0.08897150  0.91360015  0.06696738    -0.11200
C271        C  0.09669419  0.72557653  0.17139101    -0.09600
C272        C  0.07569638  0.68260435  0.19323127    -0.11200
C273        C  0.31246006  0.92079213  0.18114179    -0.09600
C274        C  0.27037112  0.90181939  0.16337254    -0.11200
C275        C  0.10855789  0.89214353  0.16685581    -0.09600
C276        C  0.08643077  0.91105510  0.18309588    -0.11200
C277        C  0.40661711  0.59087135  0.43308824    -0.09600
C278        C  0.38770452  0.61299807  0.41684905    -0.11200
C279        C  0.41633499  0.81689096  0.43114575    -0.09600
C280        C  0.39736210  0.77480384  0.41337353    -0.11200
C281        C  0.22112743  0.60111631  0.42138871    -0.09600
C282        C  0.17815469  0.58011802  0.44322872    -0.11200
C283        C  0.40915910  0.59341646  0.31695994    -0.09600
C284        C  0.38703198  0.61232823  0.33319977    -0.11200
C285        C  0.39889551  0.77889525  0.32866431    -0.09600
C286        C  0.41989311  0.82186746  0.30682407    -0.11200
C287        C  0.18312990  0.58367959  0.31891197    -0.09600
C288        C  0.22521857  0.60265224  0.33668151    -0.11200
C289        C  0.33841779  0.66458814  0.83786282     0.49100
H290        H  0.33961343  0.66585200  0.80621867     0.00100
C291        C  0.33543582  0.66160545  0.91218952     0.49100
H292        H  0.33417136  0.66040928  0.94383369     0.00100
C293        C  0.36443886  0.63645114  0.85557649    -0.13600
C294        C  0.37186651  0.72549860  0.85330275    -0.13400
C295        C  0.27631434  0.62942013  0.85781215    -0.13800
C296        C  0.36357985  0.63559121  0.89447397    -0.13700
C297        C  0.37059695  0.72370882  0.89224123    -0.13300
C298        C  0.27452483  0.62814977  0.89675035    -0.13800
C299        C  0.15717175  0.83988340  0.66219214     0.49100
H300        H  0.15597664  0.83861979  0.69383626     0.00100
C301        C  0.16015243  0.84286545  0.58786549     0.49100
H302        H  0.16141634  0.84406132  0.55622135     0.00100
C303        C  0.21927493  0.87505121  0.64224236    -0.13600
C304        C  0.12372251  0.77897279  0.64675244    -0.13400
C305        C  0.13115039  0.86802025  0.64447877    -0.13800
C306        C  0.22106379  0.87632125  0.60330418    -0.13700
C307        C  0.12499155  0.78076222  0.60781399    -0.13300
C308        C  0.13200872  0.86887989  0.60558132    -0.13600
O309        O  0.39364613  0.87192229  0.96051047    -0.77300
O310        O  0.01016527  0.60122881  0.54083026    -0.61900
O311        O  0.47591318  0.99246299  0.96794704    -1.08600
C312        C  0.07230486  0.94726748  0.55052545     1.09600
O313        O  0.10194268  0.63254873  0.53954503    -0.75200
O314        O  0.14173130  0.58180705  0.00251004    -0.62700
Ni315      Ni  0.39928690  0.94134266  0.95047632     1.34900
C316        C  0.13039955  0.55613509  0.97208846     0.88400
O317        O  0.46059688  0.57905773  0.97451693    -0.75700
O318        O  0.39855596  0.50629376  0.93810911    -0.86000
C319        C  0.06264393  0.63790563  0.54908321     0.87900
O320        O  0.35385739  0.92266463  0.49754413    -0.64200
O321        O  0.09703295  0.99817793  0.56194612    -0.83500
C322        C  0.36518905  0.94833618  0.52796588     0.88800
C323        C  0.42328397  0.55720406  0.94953002     1.10300
H324        H  0.49309876  0.98919388  0.55452967     0.42100
O325        O  0.01967610  0.51200835  0.53210748    -1.06100
O326        O  0.08002250  0.50981978  0.96630949    -0.62800
Ni327      Ni  0.00510481  0.95807670  0.99596827     1.26300
O328        O  0.41556615  0.99465113  0.53374517    -0.63000
O329        O  0.03499197  0.92541363  0.52553853    -0.75300
C330        C  0.43294471  0.86656513  0.95097232     0.88200
O331        O  0.48542337  0.90324180  0.95922531    -0.62500
Ni332      Ni  0.09630228  0.56312839  0.54957816     1.27400
Ni333      Ni  0.49048396  0.54639438  0.50408694     1.26100
H334        H  0.50249013  0.51527790  0.94552524     0.42700
O335        O  0.12810298  0.60637551  0.78955198    -0.77300
O336        O  0.39881513  0.98987638  0.70921705    -0.61900
O337        O  0.00756504  0.52411803  0.78210547    -1.08600
C338        C  0.05276238  0.92772102  0.69953589     1.09600
O339        O  0.36748651  0.89809597  0.71050209    -0.75200
O340        O  0.41821468  0.85829701  0.74754193    -0.62700
Ni341      Ni  0.05868417  0.60074016  0.79958057     1.34900
C342        C  0.44388111  0.86962517  0.77796536     0.88400
O343        O  0.42097661  0.53943993  0.77553126    -0.75700
O344        O  0.49373480  0.60147576  0.81194384    -0.86000
C345        C  0.36213434  0.93739797  0.70096518     0.87900
O346        O  0.07737399  0.64617463  0.75251356    -0.64200
O347        O  0.00185445  0.90299459  0.68811221    -0.83500
C348        C  0.05170804  0.63484641  0.72208992     0.88800
C349        C  0.44282728  0.57675037  0.80051974     1.10300
H350        H  0.01084403  0.50692910  0.69552760     0.42100
O351        O  0.48802414  0.98035306  0.71794927    -1.06100
O352        O  0.49019636  0.92000109  0.78374702    -0.62800
Ni353      Ni  0.04194784  0.99491982  0.75409074     1.26300
O354        O  0.00539329  0.58447032  0.71630795    -0.63000
O355        O  0.07461327  0.96503235  0.72452379    -0.75300
C356        C  0.13345542  0.56707365  0.79908872     0.88200
O357        O  0.09677456  0.51459518  0.79083689    -0.62500
Ni358      Ni  0.43690521  0.90373078  0.70047447     1.27400
Ni359      Ni  0.45364121  0.50955173  0.74596422     1.26100
H360        H  0.48474544  0.49754174  0.80452677     0.42700
C361        C  0.07925353  0.68757987  0.56890984    -0.09600
C362        C  0.09822647  0.72966714  0.58668190    -0.11200
C363        C  0.27446096  0.90335494  0.57866548    -0.09600
C364        C  0.31743370  0.92435337  0.55682542    -0.11200
C365        C  0.10788410  0.89147337  0.58320659    -0.09600
C366        C  0.08897141  0.91360007  0.56696749    -0.11200
C367        C  0.09669390  0.72557634  0.67139099    -0.09600
C368        C  0.07569622  0.68260417  0.69323126    -0.11200
C369        C  0.31245996  0.92079214  0.68114188    -0.09600
C370        C  0.27037113  0.90181945  0.66337255    -0.11200
C371        C  0.10855779  0.89214334  0.66685582    -0.09600
C372        C  0.08643087  0.91105514  0.68309584    -0.11200
C373        C  0.40661722  0.59087145  0.93308824    -0.09600
C374        C  0.38770440  0.61299790  0.91684898    -0.11200
C375        C  0.41633501  0.81689090  0.93114569    -0.09600
C376        C  0.39736206  0.77480370  0.91337355    -0.11200
C377        C  0.22112736  0.60111607  0.92138870    -0.09600
C378        C  0.17815464  0.58011778  0.94322872    -0.11200
C379        C  0.40915899  0.59341642  0.81695990    -0.09600
C380        C  0.38703183  0.61232815  0.83319974    -0.11200
C381        C  0.39889516  0.77889518  0.82866431    -0.09600
C382        C  0.41989287  0.82186743  0.80682409    -0.11200
C383        C  0.18312985  0.58367957  0.81891208    -0.09600
C384        C  0.22521854  0.60265210  0.83668156    -0.11200
C385        C  0.83841704  0.16458871  0.33786271     0.49100
H386        H  0.83961248  0.16585270  0.30621856     0.00100
C387        C  0.83543569  0.16160582  0.41218941     0.49100
H388        H  0.83417150  0.16040952  0.44383355     0.00100
C389        C  0.86443806  0.13645144  0.35557604    -0.13600
C390        C  0.87186615  0.22549913  0.35330273    -0.13400
C391        C  0.77631370  0.12942080  0.35781227    -0.13800
C392        C  0.86357935  0.13559140  0.39447350    -0.13700
C393        C  0.87059688  0.22370930  0.39224120    -0.13300
C394        C  0.77452451  0.12815024  0.39675049    -0.13800
C395        C  0.65717151  0.33988278  0.16219210     0.49100
H396        H  0.65597590  0.33861903  0.19383625     0.00100
C397        C  0.66015324  0.34286517  0.08786542     0.49100
H398        H  0.66141756  0.34406115  0.05622126     0.00100
C399        C  0.71927496  0.37505077  0.14224269    -0.13600
C400        C  0.62372261  0.27897226  0.14675224    -0.13400
C401        C  0.63115039  0.36801971  0.14447848    -0.13800
C402        C  0.72106430  0.37632092  0.10330449    -0.13700
C403        C  0.62499215  0.28076186  0.10781377    -0.13300
C404        C  0.63200931  0.36887953  0.10558101    -0.13600
O405        O  0.89364682  0.37192287  0.46051082    -0.77300
O406        O  0.51016439  0.10122898  0.04082933    -0.61900
O407        O  0.97591381  0.49246324  0.46794777    -1.08600
C408        C  0.57230623  0.44726764  0.05052495     1.09600
O409        O  0.60194160  0.13254836  0.03954394    -0.75200
O410        O  0.64173051  0.08180615  0.50251033    -0.62700
Ni411      Ni  0.89928772  0.44134331  0.45047688     1.34900
C412        C  0.63039884  0.05613466  0.47208856     0.88400
O413        O  0.96059593  0.07905720  0.47451591    -0.75700
O414        O  0.89855494  0.00629281  0.43810832    -0.86000
C415        C  0.56264307  0.13790546  0.04908239     0.87900
O416        O  0.85385824  0.42266534  0.99754460    -0.64200
O417        O  0.59703496  0.49817834  0.06194533    -0.83500
C418        C  0.86518999  0.44833644  0.02796654     0.88800
C419        C  0.92328290  0.05720322  0.44952906     1.10300
H420        H  0.99310016  0.48919390  0.05452998     0.42100
O421        O  0.51967498  0.01200812  0.03210718    -1.06100
O422        O  0.58002170  0.00981970  0.46630929    -0.62800
Ni423      Ni  0.50510547  0.45807691  0.49596856     1.26300
O424        O  0.91556723  0.49465107  0.03374599    -0.63000
O425        O  0.53499249  0.42541350  0.02553859    -0.75300
C426        C  0.93294529  0.36656564  0.45097250     0.88200
O427        O  0.98542399  0.40324219  0.45922543    -0.62500
Ni428      Ni  0.59630101  0.06312817  0.04957811     1.27400
Ni429      Ni  0.99048312  0.04639420  0.00408618     1.26100
H430        H  0.00248911  0.01527696  0.44552476     0.42700
O431        O  0.62810134  0.10637531  0.28955292    -0.77300
O432        O  0.89881574  0.48987708  0.20921725    -0.61900
O433        O  0.50756378  0.02411784  0.28210580    -1.08600
C434        C  0.55276202  0.42772051  0.19953528     1.09600
O435        O  0.86748688  0.39809655  0.21050221    -0.75200
O436        O  0.91821466  0.35829735  0.24754196    -0.62700
Ni437      Ni  0.55868248  0.10074002  0.29958083     1.34900
C438        C  0.94388159  0.36962556  0.27796516     0.88400
O439        O  0.92097510  0.03943916  0.27553104    -0.75700
O440        O  0.99373332  0.10147596  0.31194329    -0.86000
C441        C  0.86213460  0.43739856  0.20096558     0.87900
O442        O  0.57737301  0.14617416  0.25251358    -0.64200
O443        O  0.50185388  0.40299411  0.18811198    -0.83500
C444        C  0.55170711  0.13484603  0.22208994     0.88800
C445        C  0.94282572  0.07675008  0.30051920     1.10300
H446        H  0.51084382  0.00692926  0.19552795     0.42100
O447        O  0.98802487  0.48035358  0.21794882    -1.06100
O448        O  0.99019727  0.42000136  0.28374648    -0.62800
Ni449      Ni  0.54194873  0.49492002  0.25409012     1.26300
O450        O  0.50539217  0.08447007  0.21630802    -0.63000
O451        O  0.57461356  0.46503225  0.22452292    -0.75300
C452        C  0.63345399  0.06707360  0.29908960     0.88200
O453        O  0.59677336  0.01459513  0.29083773    -0.62500
Ni454      Ni  0.93690530  0.40373096  0.20047443     1.27400
Ni455      Ni  0.95364035  0.00955138  0.24596421     1.26100
H456        H  0.98474390  0.99754151  0.30452703     0.42700
C457        C  0.57925300  0.18757956  0.06890932    -0.09600
C458        C  0.59822642  0.22966680  0.08668153    -0.11200
C459        C  0.77446172  0.40335482  0.07866603    -0.09600
C460        C  0.81743459  0.42435343  0.05682609    -0.11200
C461        C  0.60788523  0.39147331  0.08320602    -0.09600
C462        C  0.58897291  0.41360023  0.06696677    -0.11200
C463        C  0.59669355  0.22557577  0.17139076    -0.09600
C464        C  0.57569562  0.18260372  0.19323118    -0.11200
C465        C  0.81245989  0.42079257  0.18114254    -0.09600
C466        C  0.77037097  0.40181954  0.16337318    -0.11200
C467        C  0.60855739  0.39214267  0.16685526    -0.09600
C468        C  0.58643013  0.41105430  0.18309508    -0.11200
C469        C  0.90661603  0.09087047  0.43308719    -0.09600
C470        C  0.88770349  0.11299739  0.41684821    -0.11200
C471        C  0.91633544  0.31689148  0.43114572    -0.09600
C472        C  0.89736238  0.27480426  0.41337355    -0.11200
C473        C  0.72112717  0.10111626  0.42138910    -0.09600
C474        C  0.67815423  0.08011760  0.44322900    -0.11200
C475        C  0.90915725  0.09341605  0.31695915    -0.09600
C476        C  0.88703042  0.11232802  0.33319908    -0.11200
C477        C  0.89889521  0.27889582  0.32866435    -0.09600
C478        C  0.91989329  0.32186806  0.30682407    -0.11200
C479        C  0.68312865  0.08367981  0.31891272    -0.09600
C480        C  0.72521767  0.10265273  0.33668193    -0.11200
C481        C  0.83841708  0.16458873  0.83786268     0.49100
H482        H  0.83961260  0.16585278  0.80621853     0.00100
C483        C  0.83543564  0.16160576  0.91218939     0.49100
H484        H  0.83417138  0.16040955  0.94383353     0.00100
C485        C  0.86443796  0.13645136  0.85557604    -0.13600
C486        C  0.87186623  0.22549912  0.85330272    -0.13400
C487        C  0.77631377  0.12942090  0.85781223    -0.13800
C488        C  0.86357921  0.13559126  0.89447350    -0.13700
C489        C  0.87059688  0.22370923  0.89224119    -0.13300
C490        C  0.77452454  0.12815031  0.89675045    -0.13800
C491        C  0.65717151  0.33988281  0.66219209     0.49100
H492        H  0.65597594  0.33861911  0.69383623     0.00100
C493        C  0.66015320  0.34286512  0.58786541     0.49100
H494        H  0.66141759  0.34406116  0.55622125     0.00100
C495        C  0.71927495  0.37505083  0.64224267    -0.13600
C496        C  0.62372259  0.27897224  0.64675228    -0.13400
C497        C  0.63115032  0.36801967  0.64447845    -0.13800
C498        C  0.72106429  0.37632096  0.60330448    -0.13700
C499        C  0.62499205  0.28076180  0.60781379    -0.13300
C500        C  0.63200922  0.36887943  0.60558098    -0.13600
O501        O  0.89364677  0.37192287  0.96051077    -0.77300
O502        O  0.51016441  0.10122892  0.54082934    -0.61900
O503        O  0.97591406  0.49246348  0.96794762    -1.08600
C504        C  0.57230607  0.44726752  0.55052495     1.09600
O505        O  0.60194160  0.13254829  0.53954394    -0.75200
O506        O  0.64173053  0.08180619  0.00251034    -0.62700
Ni507      Ni  0.89928782  0.44134343  0.95047686     1.34900
C508        C  0.63039891  0.05613473  0.97208855     0.88400
O509        O  0.96059586  0.07905725  0.97451597    -0.75700
O510        O  0.89855508  0.00629294  0.93810827    -0.86000
C511        C  0.56264309  0.13790540  0.54908239     0.87900
O512        O  0.85385820  0.42266524  0.49754463    -0.64200
O513        O  0.59703494  0.49817829  0.56194531    -0.83500
C514        C  0.86518988  0.44833638  0.52796654     0.88800
C515        C  0.92328296  0.05720333  0.94952904     1.10300
H516        H  0.99310009  0.48919397  0.55453004     0.42100
O517        O  0.51967492  0.01200813  0.53210714    -1.06100
O518        O  0.58002179  0.00981977  0.96630925    -0.62800
Ni519      Ni  0.50510553  0.45807692  0.99596858     1.26300
O520        O  0.91556705  0.49465109  0.53374601    -0.63000
O521        O  0.53499232  0.42541345  0.52553860    -0.75300
C522        C  0.93294521  0.36656556  0.95097255     0.88200
O523        O  0.98542390  0.40324211  0.95922551    -0.62500
Ni524      Ni  0.59630094  0.06312809  0.54957809     1.27400
Ni525      Ni  0.99048315  0.04639420  0.50408615     1.26100
H526        H  0.00248958  0.01527747  0.94552443     0.42700
O527        O  0.62810139  0.10637537  0.78955288    -0.77300
O528        O  0.89881569  0.48987691  0.70921732    -0.61900
O529        O  0.50756373  0.02411771  0.78210575    -1.08600
C530        C  0.55276199  0.42772052  0.69953525     1.09600
O531        O  0.86748671  0.39809640  0.71050220    -0.75200
O532        O  0.91821458  0.35829740  0.74754200    -0.62700
Ni533      Ni  0.55868236  0.10073987  0.79958082     1.34900
C534        C  0.94388158  0.36962549  0.77796518     0.88400
O535        O  0.92097502  0.03943907  0.77553101    -0.75700
O536        O  0.99373314  0.10147568  0.81194336    -0.86000
C537        C  0.86213454  0.43739845  0.70096556     0.87900
O538        O  0.57737275  0.14617408  0.75251362    -0.64200
O539        O  0.50185379  0.40299396  0.68811202    -0.83500
C540        C  0.55170698  0.13484584  0.72208992     0.88800
C541        C  0.94282558  0.07674990  0.80051924     1.10300
H542        H  0.51084379  0.00692913  0.69552792     0.42100
O543        O  0.98802457  0.48035320  0.71794904    -1.06100
O544        O  0.99019735  0.42000123  0.78374651    -0.62800
Ni545      Ni  0.54194865  0.49491990  0.75409015     1.26300
O546        O  0.50539212  0.08446984  0.71630798    -0.63000
O547        O  0.57461352  0.46503230  0.72452285    -0.75300
C548        C  0.63345409  0.06707369  0.79908956     0.88200
O549        O  0.59677346  0.01459520  0.79083770    -0.62500
Ni550      Ni  0.93690514  0.40373089  0.70047444     1.27400
Ni551      Ni  0.95364029  0.00955124  0.74596419     1.26100
H552        H  0.98474390  0.99754145  0.80452700     0.42700
C553        C  0.57925303  0.18757954  0.56890927    -0.09600
C554        C  0.59822641  0.22966677  0.58668150    -0.11200
C555        C  0.77446172  0.40335482  0.57866604    -0.09600
C556        C  0.81743452  0.42435329  0.55682608    -0.11200
C557        C  0.60788504  0.39147307  0.58320596    -0.09600
C558        C  0.58897271  0.41360001  0.56696671    -0.11200
C559        C  0.59669358  0.22557575  0.67139086    -0.09600
C560        C  0.57569553  0.18260353  0.69323115    -0.11200
C561        C  0.81245989  0.42079255  0.68114249    -0.09600
C562        C  0.77037093  0.40181942  0.66337316    -0.11200
C563        C  0.60855717  0.39214250  0.66685522    -0.09600
C564        C  0.58643015  0.41105435  0.68309506    -0.11200
C565        C  0.90661614  0.09087060  0.93308715    -0.09600
C566        C  0.88770355  0.11299747  0.91684818    -0.11200
C567        C  0.91633538  0.31689134  0.93114577    -0.09600
C568        C  0.89736233  0.27480413  0.91337358    -0.11200
C569        C  0.72112723  0.10111637  0.92138907    -0.09600
C570        C  0.67815433  0.08011773  0.94322901    -0.11200
C571        C  0.90915720  0.09341604  0.81695912    -0.09600
C572        C  0.88703046  0.11232810  0.83319906    -0.11200
C573        C  0.89889527  0.27889580  0.82866437    -0.09600
C574        C  0.91989329  0.32186798  0.80682404    -0.11200
C575        C  0.68312877  0.08367994  0.81891269    -0.09600
C576        C  0.72521778  0.10265286  0.83668189    -0.11200
C577        C  0.83841781  0.66458809  0.33786285     0.49100
H578        H  0.83961348  0.66585190  0.30621871     0.00100
C579        C  0.83543585  0.66160557  0.41218953     0.49100
H580        H  0.83417139  0.66040956  0.44383370     0.00100
C581        C  0.86443893  0.63645116  0.35557655    -0.13600
C582        C  0.87186660  0.72549862  0.35330274    -0.13400
C583        C  0.77631429  0.62942007  0.35781215    -0.13800
C584        C  0.86358001  0.63559138  0.39447403    -0.13700
C585        C  0.87059698  0.72370891  0.39224122    -0.13300
C586        C  0.77452480  0.62814983  0.39675035    -0.13800
C587        C  0.65717186  0.83988355  0.16219214     0.49100
H588        H  0.65597683  0.83862001  0.19383626     0.00100
C589        C  0.66015246  0.84286551  0.08786548     0.49100
H590        H  0.66141639  0.84406133  0.05622135     0.00100
C591        C  0.71927498  0.87505131  0.14224235    -0.13600
C592        C  0.62372267  0.77897292  0.14675244    -0.13400
C593        C  0.63115056  0.86802047  0.14447876    -0.13800
C594        C  0.72106378  0.87632138  0.10330417    -0.13700
C595        C  0.62499160  0.78076227  0.10781400    -0.13300
C596        C  0.63200883  0.86888000  0.10558131    -0.13600
O597        O  0.89364620  0.87192231  0.46051052    -0.77300
O598        O  0.51016543  0.60122893  0.04083017    -0.61900
O599        O  0.97591295  0.99246270  0.46794729    -1.08600
C600        C  0.57230497  0.94726751  0.05052540     1.09600
O601        O  0.60194274  0.63254865  0.03954508    -0.75200
O602        O  0.64173126  0.58180719  0.50251000    -0.62700
Ni603      Ni  0.89928694  0.94134259  0.45047635     1.34900
C604        C  0.63039947  0.55613521  0.47208844     0.88400
O605        O  0.96059666  0.57905754  0.47451704    -0.75700
O606        O  0.89855590  0.50629366  0.43810910    -0.86000
C607        C  0.56264403  0.63790560  0.04908326     0.87900
O608        O  0.85385740  0.92266468  0.99754408    -0.64200
O609        O  0.59703304  0.99817795  0.06194612    -0.83500
C610        C  0.86518899  0.94833609  0.02796589     0.88800
C611        C  0.92328390  0.55720395  0.44953003     1.10300
H612        H  0.99309862  0.98919362  0.05452977     0.42100
O613        O  0.51967602  0.51200829  0.03210757    -1.06100
O614        O  0.58002246  0.50981975  0.46630955    -0.62800
Ni615      Ni  0.50510468  0.95807666  0.49596831     1.26300
O616        O  0.91556608  0.99465107  0.03374519    -0.63000
O617        O  0.53499199  0.92541363  0.02553853    -0.75300
C618        C  0.93294479  0.86656519  0.45097237     0.88200
O619        O  0.98542347  0.90324190  0.45922529    -0.62500
Ni620      Ni  0.59630231  0.56312834  0.04957818     1.27400
Ni621      Ni  0.99048409  0.54639451  0.00408685     1.26100
H622        H  0.00249000  0.51527781  0.44552531     0.42700
O623        O  0.62810280  0.60637538  0.28955197    -0.77300
O624        O  0.89881522  0.98987641  0.20921705    -0.61900
O625        O  0.50756510  0.52411817  0.28210541    -1.08600
C626        C  0.55276221  0.92772091  0.19953593     1.09600
O627        O  0.86748664  0.89809601  0.21050211    -0.75200
O628        O  0.91821480  0.85829703  0.24754192    -0.62700
Ni629      Ni  0.55868412  0.60074017  0.29958060     1.34900
C630        C  0.94388120  0.86962518  0.27796536     0.88400
O631        O  0.92097671  0.53944004  0.27553127    -0.75700
O632        O  0.99373499  0.60147594  0.31194381    -0.86000
C633        C  0.86213446  0.93739797  0.20096515     0.87900
O634        O  0.57737388  0.64617465  0.25251360    -0.64200
O635        O  0.50185431  0.90299458  0.18811221    -0.83500
C636        C  0.55170798  0.63484656  0.22208994     0.88800
C637        C  0.94282742  0.57675048  0.30051974     1.10300
H638        H  0.51084427  0.50692953  0.19552737     0.42100
O639        O  0.98802425  0.98035318  0.21794930    -1.06100
O640        O  0.99019643  0.92000114  0.28374702    -0.62800
Ni641      Ni  0.54194789  0.99491989  0.25409076     1.26300
O642        O  0.50539322  0.58447055  0.21630790    -0.63000
O643        O  0.57461316  0.96503231  0.22452379    -0.75300
C644        C  0.63345527  0.56707357  0.29908873     0.88200
O645        O  0.59677447  0.51459512  0.29083689    -0.62500
Ni646      Ni  0.93690536  0.90373088  0.20047450     1.27400
Ni647      Ni  0.95364134  0.50955194  0.24596412     1.26100
H648        H  0.98474533  0.49754190  0.30452666     0.42700
C649        C  0.57925357  0.68757981  0.06890989    -0.09600
C650        C  0.59822633  0.72966709  0.08668192    -0.11200
C651        C  0.77446088  0.90335492  0.07866546    -0.09600
C652        C  0.81743360  0.92435319  0.05682544    -0.11200
C653        C  0.60788421  0.89147341  0.08320655    -0.09600
C654        C  0.58897164  0.91360015  0.06696736    -0.11200
C655        C  0.59669413  0.72557652  0.17139101    -0.09600
C656        C  0.57569637  0.68260434  0.19323126    -0.11200
C657        C  0.81246013  0.92079212  0.18114175    -0.09600
C658        C  0.77037118  0.90181936  0.16337251    -0.11200
C659        C  0.60855787  0.89214349  0.16685581    -0.09600
C660        C  0.58643075  0.91105508  0.18309588    -0.11200
C661        C  0.90661725  0.59087142  0.43308821    -0.09600
C662        C  0.88770463  0.61299813  0.41684903    -0.11200
C663        C  0.91633507  0.81689097  0.43114576    -0.09600
C664        C  0.89736203  0.77480382  0.41337353    -0.11200
C665        C  0.72112732  0.60111635  0.42138869    -0.09600
C666        C  0.67815457  0.58011807  0.44322869    -0.11200
C667        C  0.90915912  0.59341648  0.31695994    -0.09600
C668        C  0.88703205  0.61232827  0.33319979    -0.11200
C669        C  0.89889531  0.77889522  0.32866433    -0.09600
C670        C  0.91989301  0.82186747  0.30682409    -0.11200
C671        C  0.68312981  0.58367965  0.31891200    -0.09600
C672        C  0.72521849  0.60265228  0.33668152    -0.11200
C673        C  0.83841786  0.66458811  0.83786282     0.49100
H674        H  0.83961359  0.66585199  0.80621867     0.00100
C675        C  0.83543574  0.66160543  0.91218952     0.49100
H676        H  0.83417121  0.66040926  0.94383368     0.00100
C677        C  0.86443897  0.63645115  0.85557651    -0.13600
C678        C  0.87186659  0.72549858  0.85330274    -0.13400
C679        C  0.77631433  0.62942007  0.85781212    -0.13800
C680        C  0.86357990  0.63559124  0.89447399    -0.13700
C681        C  0.87059683  0.72370880  0.89224123    -0.13300
C682        C  0.77452476  0.62814976  0.89675033    -0.13800
C683        C  0.65717168  0.83988340  0.66219215     0.49100
H684        H  0.65597647  0.83861978  0.69383627     0.00100
C685        C  0.66015245  0.84286545  0.58786549     0.49100
H686        H  0.66141643  0.84406131  0.55622135     0.00100
C687        C  0.71927490  0.87505131  0.64224238    -0.13600
C688        C  0.62372260  0.77897279  0.64675244    -0.13400
C689        C  0.63115026  0.86802018  0.64447877    -0.13800
C690        C  0.72106377  0.87632133  0.60330419    -0.13700
C691        C  0.62499164  0.78076223  0.60781399    -0.13300
C692        C  0.63200867  0.86887986  0.60558131    -0.13600
O693        O  0.89364619  0.87192230  0.96051050    -0.77300
O694        O  0.51016527  0.60122883  0.54083025    -0.61900
O695        O  0.97591340  0.99246310  0.96794695    -1.08600
C696        C  0.57230485  0.94726749  0.55052542     1.09600
O697        O  0.60194269  0.63254872  0.53954508    -0.75200
O698        O  0.64173121  0.58180708  0.00251000    -0.62700
Ni699      Ni  0.89928703  0.94134268  0.95047632     1.34900
C700        C  0.63039945  0.55613510  0.97208844     0.88400
O701        O  0.96059676  0.57905771  0.97451698    -0.75700
O702        O  0.89855603  0.50629378  0.93810908    -0.86000
C703        C  0.56264391  0.63790562  0.54908323     0.87900
O704        O  0.85385737  0.92266464  0.49754411    -0.64200
O705        O  0.59703292  0.99817791  0.56194612    -0.83500
C706        C  0.86518903  0.94833615  0.52796589     0.88800
C707        C  0.92328396  0.55720406  0.94953001     1.10300
H708        H  0.99309897  0.98919394  0.55452957     0.42100
O709        O  0.51967615  0.51200840  0.53210748    -1.06100
O710        O  0.58002244  0.50981970  0.96630952    -0.62800
Ni711      Ni  0.50510480  0.95807671  0.99596827     1.26300
O712        O  0.91556615  0.99465113  0.53374515    -0.63000
O713        O  0.53499188  0.92541363  0.52553854    -0.75300
C714        C  0.93294473  0.86656513  0.95097233     0.88200
O715        O  0.98542342  0.90324180  0.95922529    -0.62500
Ni716      Ni  0.59630235  0.56312840  0.54957816     1.27400
Ni717      Ni  0.99048397  0.54639436  0.50408694     1.26100
H718        H  0.00249029  0.51527800  0.94552515     0.42700
O719        O  0.62810282  0.60637549  0.78955199    -0.77300
O720        O  0.89881525  0.98987637  0.70921702    -0.61900
O721        O  0.50756502  0.52411802  0.78210549    -1.08600
C722        C  0.55276226  0.92772100  0.69953588     1.09600
O723        O  0.86748664  0.89809596  0.71050207    -0.75200
O724        O  0.91821463  0.85829699  0.74754195    -0.62700
Ni725      Ni  0.55868402  0.60074015  0.79958058     1.34900
C726        C  0.94388109  0.86962515  0.77796535     0.88400
O727        O  0.92097669  0.53943997  0.77553126    -0.75700
O728        O  0.99373496  0.60147577  0.81194383    -0.86000
C729        C  0.86213446  0.93739796  0.70096515     0.87900
O730        O  0.57737382  0.64617462  0.75251358    -0.64200
O731        O  0.50185434  0.90299461  0.68811220    -0.83500
C732        C  0.55170793  0.63484641  0.72208993     0.88800
C733        C  0.94282742  0.57675039  0.80051975     1.10300
H734        H  0.51084396  0.50692913  0.69552759     0.42100
O735        O  0.98802426  0.98035311  0.71794922    -1.06100
O736        O  0.99019628  0.92000111  0.78374702    -0.62800
Ni737      Ni  0.54194788  0.99491982  0.75409073     1.26300
O738        O  0.50539318  0.58447033  0.71630794    -0.63000
O739        O  0.57461323  0.96503234  0.72452377    -0.75300
C740        C  0.63345531  0.56707367  0.79908874     0.88200
O741        O  0.59677458  0.51459521  0.79083684    -0.62500
Ni742      Ni  0.93690532  0.90373077  0.70047447     1.27400
Ni743      Ni  0.95364125  0.50955173  0.74596421     1.26100
H744        H  0.98474538  0.49754176  0.80452675     0.42700
C745        C  0.57925344  0.68757986  0.56890983    -0.09600
C746        C  0.59822635  0.72966712  0.58668190    -0.11200
C747        C  0.77446093  0.90335498  0.57866547    -0.09600
C748        C  0.81743370  0.92435333  0.55682546    -0.11200
C749        C  0.60788407  0.89147334  0.58320658    -0.09600
C750        C  0.58897145  0.91360010  0.56696744    -0.11200
C751        C  0.59669407  0.72557636  0.67139098    -0.09600
C752        C  0.57569630  0.68260416  0.69323124    -0.11200
C753        C  0.81246000  0.92079211  0.68114186    -0.09600
C754        C  0.77037111  0.90181950  0.66337259    -0.11200
C755        C  0.60855764  0.89214330  0.66685579    -0.09600
C756        C  0.58643074  0.91105512  0.68309582    -0.11200
C757        C  0.90661717  0.59087139  0.93308824    -0.09600
C758        C  0.88770444  0.61299794  0.91684899    -0.11200
C759        C  0.91633493  0.81689089  0.93114568    -0.09600
C760        C  0.89736187  0.77480367  0.91337354    -0.11200
C761        C  0.72112725  0.60111611  0.92138866    -0.09600
C762        C  0.67815453  0.58011784  0.94322869    -0.11200
C763        C  0.90915916  0.59341644  0.81695992    -0.09600
C764        C  0.88703199  0.61232816  0.83319976    -0.11200
C765        C  0.89889533  0.77889519  0.82866430    -0.09600
C766        C  0.91989301  0.82186742  0.80682407    -0.11200
C767        C  0.68312976  0.58367965  0.81891211    -0.09600
C768        C  0.72521851  0.60265215  0.83668155    -0.11200
loop_ 
_geom_bond_atom_site_label_1 
_geom_bond_atom_site_label_2 
_geom_bond_distance 
_geom_bond_site_symmetry_2 
_ccdc_geom_bond_type 
C1            H2   1.112       .  S
C1            C7   1.532       .  S
C1            C6   1.539       .  S
C1            C5   1.533       .  S
C3            H4   1.112       .  S
C3            C9   1.532       .  S
C3            C8   1.533       .  S
C3           C10   1.539       .  S
C5            C8   1.368       .  D
C5           C92   1.444       .  S
C6            C9   1.368       .  D
C6           C93   1.448       .  S
C7           C10   1.368       .  D
C7           C96   1.440       .  S
C8           C86   1.444       .  S
C9           C88   1.440       .  S
C10          C89   1.448       .  S
C11          H12   1.112       .  S
C11          C17   1.533       .  S
C11          C16   1.539       .  S
C11          C15   1.532       .  S
C13          H14   1.112       .  S
C13          C19   1.532       .  S
C13          C18   1.539       .  S
C13          C20   1.533       .  S
C15          C18   1.368       .  D
C15          C82   1.440       .  S
C16          C19   1.368       .  D
C16          C79   1.448       .  S
C17          C20   1.368       .  D
C17          C83   1.444       .  S
C18          C75   1.448       .  S
C19          C74   1.440       .  S
C20          C77   1.444       .  S
O21         Ni27   1.923       .  S
O21          C42   1.268       .  A
O22        Ni429   1.907   1_455  S
O22          C31   1.266       .  A
O23         Ni27   1.910       .  S
O23        Ni333   1.905       .  S
O23        Ni423   1.916       .  S
O23         H238   0.966       .  S
C24          O41   1.276       .  A
C24          O33   1.273       .  A
C24          C78   1.433       .  S
O25         Ni44   1.923       .  S
O25          C31   1.268       .  A
O26        Ni140   1.907       .  S
O26          C28   1.266       .  A
Ni27        O222   1.918       .  S
Ni27        O128   1.907       .  S
C28          O38   1.271       .  A
C28          C90   1.438       .  S
O29        Ni141   1.923       .  S
O29          C35   1.276       .  A
O30        Ni219   1.918   1_545  S
O30          C35   1.273       .  A
C31          C73   1.430       .  S
O32        Ni123   1.907       .  S
O32          C34   1.266   1_556  A
O33        Ni236   1.918       .  S
C34          O40   1.271       .  A
C34          C76   1.438       .  S
C35          C85   1.433       .  S
H36         O613   0.966       .  S
O37         Ni44   1.910       .  S
O37        Ni429   1.916   1_455  S
O37        Ni327   1.905   1_544  S
O37         H612   0.966   1_445  S
O38        Ni231   1.931   1_545  S
Ni39        O230   1.931       .  S
Ni39        O427   1.907   1_455  S
Ni39        O137   1.923       .  S
Ni39        O407   1.916   1_455  S
Ni39        O325   1.905       .  S
O40        Ni237   1.931       .  S
O41        Ni135   1.923   1_554  S
C42          O43   1.266       .  A
C42          C87   1.430       .  S
O43        Ni423   1.907       .  S
Ni44        O122   1.907       .  S
Ni44        O225   1.918   1_545  S
Ni45        O406   1.907       .  S
Ni45        O125   1.923   1_554  S
Ni45        O232   1.931   1_545  S
Ni45        O311   1.905   1_544  S
Ni45        O421   1.916       .  S
H46         O215   0.966   1_545  S
O47         Ni53   1.923       .  S
O47          C68   1.268       .  A
O48        Ni263   1.907       .  S
O48          C57   1.266       .  A
O49         Ni53   1.910       .  S
O49        Ni455   1.905   1_455  S
O49        Ni257   1.916   1_545  S
O49         H456   0.966   1_445  S
C50          O67   1.276       .  A
C50          O59   1.273       .  A
C50          C84   1.433       .  S
O51         Ni70   1.923       .  S
O51          C57   1.268       .  A
O52         Ni70   1.907       .  S
O52          C54   1.266       .  A
Ni53         O58   1.907       .  S
Ni53        O440   1.918   1_455  S
C54          O64   1.271       .  A
C54          C94   1.438       .  S
O55         Ni71   1.923       .  S
O55          C61   1.276       .  A
O56        Ni437   1.918       .  S
O56          C61   1.273       .  A
C57          C81   1.430       .  S
O58          C60   1.266       .  A
O59        Ni454   1.918   1_455  S
C60          O66   1.271       .  A
C60          C80   1.438       .  S
C61          C91   1.433       .  S
H62         O639   0.966   1_445  S
O63         Ni70   1.910       .  S
O63        Ni263   1.916       .  S
O63        Ni449   1.905       .  S
O63         H638   0.966       .  S
O64        Ni449   1.931       .  S
Ni65         O67   1.923       .  S
Ni65        O448   1.931   1_455  S
Ni65        O261   1.907       .  S
Ni65        O241   1.916       .  S
Ni65        O447   1.905   1_455  S
O66        Ni455   1.931   1_455  S
C68          O69   1.266       .  A
C68          C95   1.430       .  S
O69        Ni257   1.907   1_545  S
Ni70        O443   1.918       .  S
Ni71        O240   1.907   1_545  S
Ni71        O450   1.931       .  S
Ni71        O433   1.905       .  S
Ni71        O255   1.916   1_545  S
H72         O433   0.966   1_565  S
C73          C74   1.203       .  T
C75          C76   1.208       .  T
C77          C78   1.205       .  T
C79          C80   1.208       .  T
C81          C82   1.203       .  T
C83          C84   1.205       .  T
C85          C86   1.205       .  T
C87          C88   1.203       .  T
C89          C90   1.208       .  T
C91          C92   1.205       .  T
C93          C94   1.208       .  T
C95          C96   1.203       .  T
C97          H98   1.112       .  S
C97         C103   1.532       .  S
C97         C102   1.539       .  S
C97         C101   1.533       .  S
C99         H100   1.112       .  S
C99         C105   1.532       .  S
C99         C104   1.533       .  S
C99         C106   1.539       .  S
C101        C104   1.368       .  D
C101        C188   1.444       .  S
C102        C105   1.368       .  D
C102        C189   1.448       .  S
C103        C106   1.368       .  D
C103        C192   1.440       .  S
C104        C182   1.444       .  S
C105        C184   1.440       .  S
C106        C185   1.448       .  S
C107        H108   1.112       .  S
C107        C113   1.533       .  S
C107        C112   1.539       .  S
C107        C111   1.532       .  S
C109        H110   1.112       .  S
C109        C115   1.532       .  S
C109        C114   1.539       .  S
C109        C116   1.533       .  S
C111        C114   1.368       .  D
C111        C178   1.440       .  S
C112        C115   1.368       .  D
C112        C175   1.448       .  S
C113        C116   1.368       .  D
C113        C179   1.444       .  S
C114        C171   1.448       .  S
C115        C170   1.440       .  S
C116        C173   1.444       .  S
O117       Ni123   1.923       .  S
O117        C138   1.268       .  A
O118       Ni525   1.907   1_455  S
O118        C127   1.266       .  A
O119       Ni123   1.910       .  S
O119       Ni237   1.905   1_556  S
O119       Ni519   1.916       .  S
O119        H334   0.966       .  S
C120        O137   1.276       .  A
C120        O129   1.273       .  A
C120        C174   1.433       .  S
O121       Ni140   1.923       .  S
O121        C127   1.268       .  A
O122        C124   1.266   1_554  A
Ni123       O318   1.918       .  S
C124        O134   1.271       .  A
C124        C186   1.438       .  S
O125        C131   1.276       .  A
O126       Ni315   1.918   1_545  S
O126        C131   1.273       .  A
C127        C169   1.430       .  S
O128        C130   1.266       .  A
O129       Ni332   1.918       .  S
C130        O136   1.271       .  A
C130        C172   1.438       .  S
C131        C181   1.433       .  S
H132        O709   0.966       .  S
O133       Ni525   1.916   1_455  S
O133       Ni231   1.905   1_545  S
O133       Ni140   1.910       .  S
O133        H708   0.966   1_445  S
O134       Ni327   1.931   1_545  S
Ni135       O326   1.931       .  S
Ni135       O523   1.907   1_455  S
Ni135       O503   1.916   1_455  S
Ni135       O229   1.905   1_556  S
O136       Ni333   1.931       .  S
C138        O139   1.266       .  A
C138        C183   1.430       .  S
O139       Ni519   1.907       .  S
Ni140       O321   1.918   1_545  S
Ni141       O502   1.907       .  S
Ni141       O328   1.931   1_545  S
Ni141       O215   1.905   1_545  S
Ni141       O517   1.916       .  S
H142        O311   0.966   1_545  S
O143       Ni149   1.923       .  S
O143        C164   1.268       .  A
O144       Ni359   1.907       .  S
O144        C153   1.266       .  A
O145       Ni149   1.910       .  S
O145       Ni551   1.905   1_455  S
O145       Ni353   1.916   1_545  S
O145        H552   0.966   1_445  S
C146        O163   1.276       .  A
C146        O155   1.273       .  A
C146        C180   1.433       .  S
O147       Ni166   1.923       .  S
O147        C153   1.268       .  A
O148       Ni166   1.907       .  S
O148        C150   1.266       .  A
Ni149       O536   1.918   1_455  S
Ni149       O154   1.907       .  S
C150        O160   1.271       .  A
C150        C190   1.438       .  S
O151       Ni167   1.923       .  S
O151        C157   1.276       .  A
O152       Ni533   1.918       .  S
O152        C157   1.273       .  A
C153        C177   1.430       .  S
O154        C156   1.266       .  A
O155       Ni550   1.918   1_455  S
C156        O162   1.271       .  A
C156        C176   1.438       .  S
C157        C187   1.433       .  S
H158        O735   0.966   1_445  S
O159       Ni359   1.916       .  S
O159       Ni545   1.905       .  S
O159       Ni166   1.910       .  S
O159        H734   0.966       .  S
O160       Ni545   1.931       .  S
Ni161       O544   1.931   1_455  S
Ni161       O357   1.907       .  S
Ni161       O163   1.923       .  S
Ni161       O337   1.916       .  S
Ni161       O543   1.905   1_455  S
O162       Ni551   1.931   1_455  S
C164        O165   1.266       .  A
C164        C191   1.430       .  S
O165       Ni353   1.907   1_545  S
Ni166       O539   1.918       .  S
Ni167       O336   1.907   1_545  S
Ni167       O546   1.931       .  S
Ni167       O529   1.905       .  S
Ni167       O351   1.916   1_545  S
H168        O529   0.966   1_565  S
C169        C170   1.203       .  T
C171        C172   1.208       .  T
C173        C174   1.205       .  T
C175        C176   1.208       .  T
C177        C178   1.203       .  T
C179        C180   1.205       .  T
C181        C182   1.205       .  T
C183        C184   1.203       .  T
C185        C186   1.208       .  T
C187        C188   1.205       .  T
C189        C190   1.208       .  T
C191        C192   1.203       .  T
C193        H194   1.112       .  S
C193        C199   1.532       .  S
C193        C198   1.539       .  S
C193        C197   1.533       .  S
C195        H196   1.112       .  S
C195        C201   1.532       .  S
C195        C200   1.533       .  S
C195        C202   1.539       .  S
C197        C200   1.368       .  D
C197        C284   1.444       .  S
C198        C201   1.368       .  D
C198        C285   1.448       .  S
C199        C202   1.368       .  D
C199        C288   1.440       .  S
C200        C278   1.444       .  S
C201        C280   1.440       .  S
C202        C281   1.448       .  S
C203        H204   1.112       .  S
C203        C209   1.533       .  S
C203        C208   1.539       .  S
C203        C207   1.532       .  S
C205        H206   1.112       .  S
C205        C211   1.532       .  S
C205        C210   1.539       .  S
C205        C212   1.533       .  S
C207        C210   1.368       .  D
C207        C274   1.440       .  S
C208        C211   1.368       .  D
C208        C271   1.448       .  S
C209        C212   1.368       .  D
C209        C275   1.444       .  S
C210        C267   1.448       .  S
C211        C266   1.440       .  S
C212        C269   1.444       .  S
O213       Ni219   1.923       .  S
O213        C234   1.268       .  A
O214       Ni621   1.907   1_455  S
O214        C223   1.266       .  A
O215       Ni219   1.910       .  S
O215       Ni615   1.916       .  S
C216        O233   1.276       .  A
C216        O225   1.273       .  A
C216        C270   1.433       .  S
O217       Ni236   1.923       .  S
O217        C223   1.268       .  A
O218       Ni332   1.907       .  S
O218        C220   1.266       .  A
Ni219       O320   1.907       .  S
C220        O230   1.271       .  A
C220        C282   1.438       .  S
O221       Ni333   1.923       .  S
O221        C227   1.276       .  A
O222        C227   1.273       .  A
C223        C265   1.430       .  S
O224       Ni315   1.907       .  S
O224        C226   1.266   1_556  A
C226        O232   1.271       .  A
C226        C268   1.438       .  S
C227        C277   1.433       .  S
H228        O421   0.966   1_565  S
O229       Ni621   1.916   1_455  S
O229       Ni236   1.910       .  S
O229        H420   0.966   1_455  S
Ni231       O619   1.907   1_455  S
Ni231       O329   1.923       .  S
Ni231       O599   1.916   1_455  S
O233       Ni327   1.923   1_554  S
C234        O235   1.266       .  A
C234        C279   1.430       .  S
O235       Ni615   1.907       .  S
Ni236       O314   1.907       .  S
Ni237       O598   1.907       .  S
Ni237       O317   1.923   1_554  S
Ni237       O613   1.916       .  S
O239       Ni245   1.923       .  S
O239        C260   1.268       .  A
O240        C249   1.266       .  A
O241       Ni245   1.910       .  S
O241       Ni647   1.905   1_455  S
O241        H648   0.966   1_455  S
C242        O259   1.276       .  A
C242        O251   1.273       .  A
C242        C276   1.433       .  S
O243       Ni262   1.923       .  S
O243        C249   1.268       .  A
O244       Ni262   1.907       .  S
O244        C246   1.266       .  A
Ni245       O632   1.918   1_455  S
Ni245       O250   1.907       .  S
C246        O256   1.271       .  A
C246        C286   1.438       .  S
O247       Ni263   1.923       .  S
O247        C253   1.276       .  A
O248       Ni629   1.918       .  S
O248        C253   1.273       .  A
C249        C273   1.430       .  S
O250        C252   1.266       .  A
O251       Ni646   1.918   1_455  S
C252        O258   1.271       .  A
C252        C272   1.438       .  S
C253        C283   1.433       .  S
H254        O447   0.966   1_455  S
O255       Ni641   1.905       .  S
O255       Ni262   1.910       .  S
O255        H446   0.966   1_565  S
O256       Ni641   1.931       .  S
Ni257       O640   1.931   1_455  S
Ni257       O259   1.923       .  S
Ni257       O639   1.905   1_455  S
O258       Ni647   1.931   1_455  S
C260        O261   1.266       .  A
C260        C287   1.430       .  S
Ni262       O635   1.918       .  S
Ni263       O642   1.931       .  S
Ni263       O625   1.905       .  S
H264        O625   0.966       .  S
C265        C266   1.203       .  T
C267        C268   1.208       .  T
C269        C270   1.205       .  T
C271        C272   1.208       .  T
C273        C274   1.203       .  T
C275        C276   1.205       .  T
C277        C278   1.205       .  T
C279        C280   1.203       .  T
C281        C282   1.208       .  T
C283        C284   1.205       .  T
C285        C286   1.208       .  T
C287        C288   1.203       .  T
C289        H290   1.112       .  S
C289        C295   1.532       .  S
C289        C294   1.539       .  S
C289        C293   1.533       .  S
C291        H292   1.112       .  S
C291        C297   1.532       .  S
C291        C296   1.533       .  S
C291        C298   1.539       .  S
C293        C296   1.368       .  D
C293        C380   1.444       .  S
C294        C297   1.368       .  D
C294        C381   1.448       .  S
C295        C298   1.368       .  D
C295        C384   1.440       .  S
C296        C374   1.444       .  S
C297        C376   1.440       .  S
C298        C377   1.448       .  S
C299        H300   1.112       .  S
C299        C305   1.533       .  S
C299        C304   1.539       .  S
C299        C303   1.532       .  S
C301        H302   1.112       .  S
C301        C307   1.532       .  S
C301        C306   1.539       .  S
C301        C308   1.533       .  S
C303        C306   1.368       .  D
C303        C370   1.440       .  S
C304        C307   1.368       .  D
C304        C367   1.448       .  S
C305        C308   1.368       .  D
C305        C371   1.444       .  S
C306        C363   1.448       .  S
C307        C362   1.440       .  S
C308        C365   1.444       .  S
O309       Ni315   1.923       .  S
O309        C330   1.268       .  A
O310       Ni717   1.907   1_455  S
O310        C319   1.266       .  A
O311       Ni315   1.910       .  S
O311       Ni711   1.916       .  S
C312        O329   1.276       .  A
C312        O321   1.273       .  A
C312        C366   1.433       .  S
O313       Ni332   1.923       .  S
O313        C319   1.268       .  A
O314        C316   1.266   1_554  A
C316        O326   1.271       .  A
C316        C378   1.438       .  S
O317        C323   1.276       .  A
O318        C323   1.273       .  A
C319        C361   1.430       .  S
O320        C322   1.266       .  A
C322        O328   1.271       .  A
C322        C364   1.438       .  S
C323        C373   1.433       .  S
H324        O517   0.966   1_565  S
O325       Ni717   1.916   1_455  S
O325       Ni332   1.910       .  S
O325        H516   0.966   1_455  S
Ni327       O715   1.907   1_455  S
Ni327       O695   1.916   1_455  S
C330        O331   1.266       .  A
C330        C375   1.430       .  S
O331       Ni711   1.907       .  S
Ni333       O694   1.907       .  S
Ni333       O709   1.916       .  S
O335       Ni341   1.923       .  S
O335        C356   1.268       .  A
O336        C345   1.266       .  A
O337       Ni341   1.910       .  S
O337       Ni743   1.905   1_455  S
O337        H744   0.966   1_455  S
C338        O355   1.276       .  A
C338        O347   1.273       .  A
C338        C372   1.433       .  S
O339       Ni358   1.923       .  S
O339        C345   1.268       .  A
O340       Ni358   1.907       .  S
O340        C342   1.266       .  A
Ni341       O728   1.918   1_455  S
Ni341       O346   1.907       .  S
C342        O352   1.271       .  A
C342        C382   1.438       .  S
O343       Ni359   1.923       .  S
O343        C349   1.276       .  A
O344       Ni725   1.918       .  S
O344        C349   1.273       .  A
C345        C369   1.430       .  S
O346        C348   1.266       .  A
O347       Ni742   1.918   1_455  S
C348        O354   1.271       .  A
C348        C368   1.438       .  S
C349        C379   1.433       .  S
H350        O543   0.966   1_455  S
O351       Ni737   1.905       .  S
O351       Ni358   1.910       .  S
O351        H542   0.966   1_565  S
O352       Ni737   1.931       .  S
Ni353       O736   1.931   1_455  S
Ni353       O355   1.923       .  S
Ni353       O735   1.905   1_455  S
O354       Ni743   1.931   1_455  S
C356        O357   1.266       .  A
C356        C383   1.430       .  S
Ni358       O731   1.918       .  S
Ni359       O738   1.931       .  S
Ni359       O721   1.905       .  S
H360        O721   0.966       .  S
C361        C362   1.203       .  T
C363        C364   1.208       .  T
C365        C366   1.205       .  T
C367        C368   1.208       .  T
C369        C370   1.203       .  T
C371        C372   1.205       .  T
C373        C374   1.205       .  T
C375        C376   1.203       .  T
C377        C378   1.208       .  T
C379        C380   1.205       .  T
C381        C382   1.208       .  T
C383        C384   1.203       .  T
C385        H386   1.112       .  S
C385        C391   1.532       .  S
C385        C390   1.539       .  S
C385        C389   1.533       .  S
C387        H388   1.112       .  S
C387        C393   1.532       .  S
C387        C392   1.533       .  S
C387        C394   1.539       .  S
C389        C392   1.368       .  D
C389        C476   1.444       .  S
C390        C393   1.368       .  D
C390        C477   1.448       .  S
C391        C394   1.368       .  D
C391        C480   1.440       .  S
C392        C470   1.444       .  S
C393        C472   1.440       .  S
C394        C473   1.448       .  S
C395        H396   1.112       .  S
C395        C401   1.533       .  S
C395        C400   1.539       .  S
C395        C399   1.532       .  S
C397        H398   1.112       .  S
C397        C403   1.532       .  S
C397        C402   1.539       .  S
C397        C404   1.533       .  S
C399        C402   1.368       .  D
C399        C466   1.440       .  S
C400        C403   1.368       .  D
C400        C463   1.448       .  S
C401        C404   1.368       .  D
C401        C467   1.444       .  S
C402        C459   1.448       .  S
C403        C458   1.440       .  S
C404        C461   1.444       .  S
O405       Ni411   1.923       .  S
O405        C426   1.268       .  A
O406        C415   1.266       .  A
O407       Ni411   1.910       .  S
O407       Ni717   1.905       .  S
O407        H622   0.966   1_655  S
C408        O425   1.276       .  A
C408        O417   1.273       .  A
C408        C462   1.433       .  S
O409       Ni428   1.923       .  S
O409        C415   1.268       .  A
O410       Ni524   1.907       .  S
O410        C412   1.266       .  A
Ni411       O606   1.918       .  S
Ni411       O512   1.907       .  S
C412        O422   1.271       .  A
C412        C474   1.438       .  S
O413       Ni525   1.923       .  S
O413        C419   1.276       .  A
O414       Ni603   1.918   1_545  S
O414        C419   1.273       .  A
C415        C457   1.430       .  S
O416       Ni507   1.907       .  S
O416        C418   1.266   1_556  A
O417       Ni620   1.918       .  S
C418        O424   1.271       .  A
C418        C460   1.438       .  S
C419        C469   1.433       .  S
O421       Ni711   1.905   1_544  S
O421       Ni428   1.910       .  S
O422       Ni615   1.931   1_545  S
Ni423       O614   1.931       .  S
Ni423       O521   1.923       .  S
Ni423       O709   1.905       .  S
O424       Ni621   1.931       .  S
O425       Ni519   1.923   1_554  S
C426        O427   1.266       .  A
C426        C471   1.430       .  S
Ni428       O506   1.907       .  S
Ni428       O609   1.918   1_545  S
Ni429       O509   1.923   1_554  S
Ni429       O616   1.931   1_545  S
Ni429       O695   1.905   1_544  S
H430        O599   0.966   1_445  S
O431       Ni437   1.923       .  S
O431        C452   1.268       .  A
O432       Ni647   1.907       .  S
O432        C441   1.266       .  A
O433       Ni437   1.910       .  S
O433       Ni641   1.916   1_545  S
C434        O451   1.276       .  A
C434        O443   1.273       .  A
C434        C468   1.433       .  S
O435       Ni454   1.923       .  S
O435        C441   1.268       .  A
O436       Ni454   1.907       .  S
O436        C438   1.266       .  A
Ni437       O442   1.907       .  S
C438        O448   1.271       .  A
C438        C478   1.438       .  S
O439       Ni455   1.923       .  S
O439        C445   1.276       .  A
O440        C445   1.273       .  A
C441        C465   1.430       .  S
O442        C444   1.266       .  A
C444        O450   1.271       .  A
C444        C464   1.438       .  S
C445        C475   1.433       .  S
O447       Ni647   1.916       .  S
O447       Ni454   1.910       .  S
Ni449       O645   1.907       .  S
Ni449       O451   1.923       .  S
Ni449       O625   1.916       .  S
C452        O453   1.266       .  A
C452        C479   1.430       .  S
O453       Ni641   1.907   1_545  S
Ni455       O624   1.907   1_545  S
Ni455       O639   1.916   1_545  S
C457        C458   1.203       .  T
C459        C460   1.208       .  T
C461        C462   1.205       .  T
C463        C464   1.208       .  T
C465        C466   1.203       .  T
C467        C468   1.205       .  T
C469        C470   1.205       .  T
C471        C472   1.203       .  T
C473        C474   1.208       .  T
C475        C476   1.205       .  T
C477        C478   1.208       .  T
C479        C480   1.203       .  T
C481        H482   1.112       .  S
C481        C487   1.532       .  S
C481        C486   1.539       .  S
C481        C485   1.533       .  S
C483        H484   1.112       .  S
C483        C489   1.532       .  S
C483        C488   1.533       .  S
C483        C490   1.539       .  S
C485        C488   1.368       .  D
C485        C572   1.444       .  S
C486        C489   1.368       .  D
C486        C573   1.448       .  S
C487        C490   1.368       .  D
C487        C576   1.440       .  S
C488        C566   1.444       .  S
C489        C568   1.440       .  S
C490        C569   1.448       .  S
C491        H492   1.112       .  S
C491        C497   1.533       .  S
C491        C496   1.539       .  S
C491        C495   1.532       .  S
C493        H494   1.112       .  S
C493        C499   1.532       .  S
C493        C498   1.539       .  S
C493        C500   1.533       .  S
C495        C498   1.368       .  D
C495        C562   1.440       .  S
C496        C499   1.368       .  D
C496        C559   1.448       .  S
C497        C500   1.368       .  D
C497        C563   1.444       .  S
C498        C555   1.448       .  S
C499        C554   1.440       .  S
C500        C557   1.444       .  S
O501       Ni507   1.923       .  S
O501        C522   1.268       .  A
O502        C511   1.266       .  A
O503       Ni507   1.910       .  S
O503       Ni621   1.905   1_556  S
O503        H718   0.966   1_655  S
C504        O521   1.276       .  A
C504        O513   1.273       .  A
C504        C558   1.433       .  S
O505       Ni524   1.923       .  S
O505        C511   1.268       .  A
O506        C508   1.266   1_554  A
Ni507       O702   1.918       .  S
C508        O518   1.271       .  A
C508        C570   1.438       .  S
O509        C515   1.276       .  A
O510       Ni699   1.918   1_545  S
O510        C515   1.273       .  A
C511        C553   1.430       .  S
O512        C514   1.266       .  A
O513       Ni716   1.918       .  S
C514        O520   1.271       .  A
C514        C556   1.438       .  S
C515        C565   1.433       .  S
O517       Ni615   1.905   1_545  S
O517       Ni524   1.910       .  S
O518       Ni711   1.931   1_545  S
Ni519       O710   1.931       .  S
Ni519       O613   1.905   1_556  S
O520       Ni717   1.931       .  S
C522        O523   1.266       .  A
C522        C567   1.430       .  S
Ni524       O705   1.918   1_545  S
Ni525       O712   1.931   1_545  S
Ni525       O599   1.905   1_545  S
H526        O695   0.966   1_445  S
O527       Ni533   1.923       .  S
O527        C548   1.268       .  A
O528       Ni743   1.907       .  S
O528        C537   1.266       .  A
O529       Ni533   1.910       .  S
O529       Ni737   1.916   1_545  S
C530        O547   1.276       .  A
C530        O539   1.273       .  A
C530        C564   1.433       .  S
O531       Ni550   1.923       .  S
O531        C537   1.268       .  A
O532       Ni550   1.907       .  S
O532        C534   1.266       .  A
Ni533       O538   1.907       .  S
C534        O544   1.271       .  A
C534        C574   1.438       .  S
O535       Ni551   1.923       .  S
O535        C541   1.276       .  A
O536        C541   1.273       .  A
C537        C561   1.430       .  S
O538        C540   1.266       .  A
C540        O546   1.271       .  A
C540        C560   1.438       .  S
C541        C571   1.433       .  S
O543       Ni743   1.916       .  S
O543       Ni550   1.910       .  S
Ni545       O741   1.907       .  S
Ni545       O547   1.923       .  S
Ni545       O721   1.916       .  S
C548        O549   1.266       .  A
C548        C575   1.430       .  S
O549       Ni737   1.907   1_545  S
Ni551       O720   1.907   1_545  S
Ni551       O735   1.916   1_545  S
C553        C554   1.203       .  T
C555        C556   1.208       .  T
C557        C558   1.205       .  T
C559        C560   1.208       .  T
C561        C562   1.203       .  T
C563        C564   1.205       .  T
C565        C566   1.205       .  T
C567        C568   1.203       .  T
C569        C570   1.208       .  T
C571        C572   1.205       .  T
C573        C574   1.208       .  T
C575        C576   1.203       .  T
C577        H578   1.112       .  S
C577        C583   1.532       .  S
C577        C582   1.539       .  S
C577        C581   1.533       .  S
C579        H580   1.112       .  S
C579        C585   1.532       .  S
C579        C584   1.533       .  S
C579        C586   1.539       .  S
C581        C584   1.368       .  D
C581        C668   1.444       .  S
C582        C585   1.368       .  D
C582        C669   1.448       .  S
C583        C586   1.368       .  D
C583        C672   1.440       .  S
C584        C662   1.444       .  S
C585        C664   1.440       .  S
C586        C665   1.448       .  S
C587        H588   1.112       .  S
C587        C593   1.533       .  S
C587        C592   1.539       .  S
C587        C591   1.532       .  S
C589        H590   1.112       .  S
C589        C595   1.532       .  S
C589        C594   1.539       .  S
C589        C596   1.533       .  S
C591        C594   1.368       .  D
C591        C658   1.440       .  S
C592        C595   1.368       .  D
C592        C655   1.448       .  S
C593        C596   1.368       .  D
C593        C659   1.444       .  S
C594        C651   1.448       .  S
C595        C650   1.440       .  S
C596        C653   1.444       .  S
O597       Ni603   1.923       .  S
O597        C618   1.268       .  A
O598        C607   1.266       .  A
O599       Ni603   1.910       .  S
C600        O617   1.276       .  A
C600        O609   1.273       .  A
C600        C654   1.433       .  S
O601       Ni620   1.923       .  S
O601        C607   1.268       .  A
O602       Ni716   1.907       .  S
O602        C604   1.266       .  A
Ni603       O704   1.907       .  S
C604        O614   1.271       .  A
C604        C666   1.438       .  S
O605       Ni717   1.923       .  S
O605        C611   1.276       .  A
O606        C611   1.273       .  A
C607        C649   1.430       .  S
O608       Ni699   1.907       .  S
O608        C610   1.266   1_556  A
C610        O616   1.271       .  A
C610        C652   1.438       .  S
C611        C661   1.433       .  S
O613       Ni620   1.910       .  S
Ni615       O713   1.923       .  S
O617       Ni711   1.923   1_554  S
C618        O619   1.266       .  A
C618        C663   1.430       .  S
Ni620       O698   1.907       .  S
Ni621       O701   1.923   1_554  S
O623       Ni629   1.923       .  S
O623        C644   1.268       .  A
O624        C633   1.266       .  A
O625       Ni629   1.910       .  S
C626        O643   1.276       .  A
C626        O635   1.273       .  A
C626        C660   1.433       .  S
O627       Ni646   1.923       .  S
O627        C633   1.268       .  A
O628       Ni646   1.907       .  S
O628        C630   1.266       .  A
Ni629       O634   1.907       .  S
C630        O640   1.271       .  A
C630        C670   1.438       .  S
O631       Ni647   1.923       .  S
O631        C637   1.276       .  A
O632        C637   1.273       .  A
C633        C657   1.430       .  S
O634        C636   1.266       .  A
C636        O642   1.271       .  A
C636        C656   1.438       .  S
C637        C667   1.433       .  S
O639       Ni646   1.910       .  S
Ni641       O643   1.923       .  S
C644        O645   1.266       .  A
C644        C671   1.430       .  S
C649        C650   1.203       .  T
C651        C652   1.208       .  T
C653        C654   1.205       .  T
C655        C656   1.208       .  T
C657        C658   1.203       .  T
C659        C660   1.205       .  T
C661        C662   1.205       .  T
C663        C664   1.203       .  T
C665        C666   1.208       .  T
C667        C668   1.205       .  T
C669        C670   1.208       .  T
C671        C672   1.203       .  T
C673        H674   1.112       .  S
C673        C679   1.532       .  S
C673        C678   1.539       .  S
C673        C677   1.533       .  S
C675        H676   1.112       .  S
C675        C681   1.532       .  S
C675        C680   1.533       .  S
C675        C682   1.539       .  S
C677        C680   1.368       .  D
C677        C764   1.444       .  S
C678        C681   1.368       .  D
C678        C765   1.448       .  S
C679        C682   1.368       .  D
C679        C768   1.440       .  S
C680        C758   1.444       .  S
C681        C760   1.440       .  S
C682        C761   1.448       .  S
C683        H684   1.112       .  S
C683        C689   1.533       .  S
C683        C688   1.539       .  S
C683        C687   1.532       .  S
C685        H686   1.112       .  S
C685        C691   1.532       .  S
C685        C690   1.539       .  S
C685        C692   1.533       .  S
C687        C690   1.368       .  D
C687        C754   1.440       .  S
C688        C691   1.368       .  D
C688        C751   1.448       .  S
C689        C692   1.368       .  D
C689        C755   1.444       .  S
C690        C747   1.448       .  S
C691        C746   1.440       .  S
C692        C749   1.444       .  S
O693       Ni699   1.923       .  S
O693        C714   1.268       .  A
O694        C703   1.266       .  A
O695       Ni699   1.910       .  S
C696        O713   1.276       .  A
C696        O705   1.273       .  A
C696        C750   1.433       .  S
O697       Ni716   1.923       .  S
O697        C703   1.268       .  A
O698        C700   1.266   1_554  A
C700        O710   1.271       .  A
C700        C762   1.438       .  S
O701        C707   1.276       .  A
O702        C707   1.273       .  A
C703        C745   1.430       .  S
O704        C706   1.266       .  A
C706        O712   1.271       .  A
C706        C748   1.438       .  S
C707        C757   1.433       .  S
O709       Ni716   1.910       .  S
C714        O715   1.266       .  A
C714        C759   1.430       .  S
O719       Ni725   1.923       .  S
O719        C740   1.268       .  A
O720        C729   1.266       .  A
O721       Ni725   1.910       .  S
C722        O739   1.276       .  A
C722        O731   1.273       .  A
C722        C756   1.433       .  S
O723       Ni742   1.923       .  S
O723        C729   1.268       .  A
O724       Ni742   1.907       .  S
O724        C726   1.266       .  A
Ni725       O730   1.907       .  S
C726        O736   1.271       .  A
C726        C766   1.438       .  S
O727       Ni743   1.923       .  S
O727        C733   1.276       .  A
O728        C733   1.273       .  A
C729        C753   1.430       .  S
O730        C732   1.266       .  A
C732        O738   1.271       .  A
C732        C752   1.438       .  S
C733        C763   1.433       .  S
O735       Ni742   1.910       .  S
Ni737       O739   1.923       .  S
C740        O741   1.266       .  A
C740        C767   1.430       .  S
C745        C746   1.203       .  T
C747        C748   1.208       .  T
C749        C750   1.205       .  T
C751        C752   1.208       .  T
C753        C754   1.203       .  T
C755        C756   1.205       .  T
C757        C758   1.205       .  T
C759        C760   1.203       .  T
C761        C762   1.208       .  T
C763        C764   1.205       .  T
C765        C766   1.208       .  T
C767        C768   1.203       .  T
