geometry optimzed in LAMMPS
_audit_creation_date              2020-11-30 
_audit_creation_method            'lammps2cif' 
_symmetry_space_group_name_H-M    'P1' 
_symmetry_Int_Tables_number       1 
_symmetry_cell_setting            triclinic 
loop_ 
_symmetry_equiv_pos_as_xyz 
  x,y,z 
_cell_length_a                    12.25596867 
_cell_length_b                    35.99081471893889 
_cell_length_c                    36.50974233675063 
_cell_angle_alpha                 91.3479445253583 
_cell_angle_beta                  93.191117985788 
_cell_angle_gamma                 91.83637463170261 
loop_ 
_atom_site_label 
_atom_site_type_symbol 
_atom_site_fract_x 
_atom_site_fract_y 
_atom_site_fract_z 
_atom_site_charge 
N1          N  0.53113423  0.72873252  0.38570068    -0.26700
N2          N  0.54915766  0.72039195  0.42055746    -0.34500
C3          C  0.58238096  0.75135811  0.43986925     0.01700
C4          C  0.58518903  0.78096789  0.41628903     0.07700
C5          C  0.55174743  0.76557888  0.38209212    -0.05400
H6          H  0.60272402  0.75215902  0.46909608     0.08400
H7          H  0.54402714  0.78001460  0.35646826     0.09600
Cu8        Cu  0.53061774  0.66711591  0.44085754     0.44200
Cu9        Cu  0.48582649  0.68801569  0.34514363     0.42000
Cu10       Cu  0.47074715  0.59157363  0.37448823     0.43900
N11         N  0.52173818  0.61139526  0.45470976    -0.34000
N12         N  0.50488791  0.58390522  0.43017582    -0.28300
C13         C  0.51027242  0.55135917  0.44739419    -0.04400
C14         C  0.52833664  0.55859320  0.48465631     0.07800
C15         C  0.53547197  0.59697609  0.48831600     0.01600
H16         H  0.49893902  0.52436112  0.43382399     0.09300
H17         H  0.54962374  0.61323485  0.51352757     0.08300
N18         N  0.45262574  0.60673871  0.31994433    -0.35500
N19         N  0.46017918  0.64163986  0.30940584    -0.27700
C20         C  0.45850782  0.64176498  0.27252459    -0.02900
C21         C  0.44915309  0.60539839  0.25915474     0.05700
C22         C  0.44471457  0.58387659  0.28999929     0.03800
H23         H  0.46774826  0.66652158  0.25658656     0.08900
H24         H  0.44232513  0.55382402  0.29075415     0.07700
N25         N  0.51197403  0.35666705  0.60127732    -0.26700
N26         N  0.53872869  0.36638013  0.56824524    -0.34500
C27         C  0.57388534  0.33639370  0.55044510     0.01700
C28         C  0.06878907  0.30663880  0.57371489     0.07700
C29         C  0.02830061  0.32031528  0.60553063    -0.05400
H30         H  0.60421122  0.33661200  0.52317940     0.08400
H31         H  0.01786786  0.30559874  0.63066687     0.09600
Cu32       Cu  0.53679465  0.42080936  0.55149038     0.44200
Cu33       Cu  0.47607187  0.39443694  0.64090056     0.42000
Cu34       Cu  0.50565586  0.49268583  0.62297054     0.43900
N35         N  0.53495512  0.47723208  0.54212216    -0.34000
N36         N  0.52658754  0.50354495  0.56765553    -0.28300
C37         C  0.52678907  0.53680508  0.55140288    -0.04400
C38         C  0.53331170  0.53093649  0.51392618     0.07800
C39         C  0.53897245  0.49289838  0.50919033     0.01600
H40         H  0.51899594  0.56320233  0.56563650     0.09300
H41         H  0.54333141  0.47753850  0.48351424     0.08300
N42         N  0.48369138  0.47123295  0.67495578    -0.35500
N43         N  0.47506217  0.43514788  0.68067501    -0.27700
C44         C  0.47170757  0.42925264  0.71669439    -0.02900
C45         C  0.47690812  0.46324467  0.73477070     0.05700
C46         C  0.48350884  0.48943451  0.70764499     0.03800
H47         H  0.96720800  0.40210553  0.72874397     0.08900
H48         H  0.49189415  0.51931175  0.71151336     0.07700
C49         C  0.28974535  0.55135505  0.99163742    -0.01900
C50         C  0.18665981  0.51690232  0.00107737    -0.01900
C51         C  0.44054854  0.55202124  0.00315303    -0.01900
C52         C  0.03663174  0.51798654  0.99072649    -0.01900
N53         N  0.31927004  0.35226155  0.38274422    -0.26700
N54         N  0.33579342  0.36107068  0.41804918    -0.34500
C55         C  0.36661672  0.33046267  0.43587597     0.01700
C56         C  0.36820503  0.30108242  0.41062618     0.07700
C57         C  0.33747886  0.31589473  0.37724344    -0.05400
H58         H  0.38509524  0.32949935  0.46517088     0.08400
H59         H  0.33007106  0.30151104  0.35082802     0.09600
Cu60       Cu  0.31283614  0.41436421  0.44025501     0.44200
Cu61       Cu  0.27930659  0.39036501  0.34314499     0.42000
Cu62       Cu  0.25842847  0.48599185  0.37252804     0.43900
N63         N  0.28668283  0.47014515  0.45413697    -0.34000
N64         N  0.26988461  0.49612407  0.42954602    -0.28300
C65         C  0.26361225  0.52923222  0.44723779    -0.04400
C66         C  0.27686015  0.52408801  0.48473957     0.07800
C67         C  0.28970532  0.48612804  0.48802850     0.01600
H68         H  0.25235246  0.55536381  0.43371228     0.09300
H69         H  0.30376336  0.47136927  0.51323671     0.08300
N70         N  0.24801826  0.46837412  0.31713446    -0.35500
N71         N  0.25633983  0.43311980  0.30694199    -0.27700
C72         C  0.24900969  0.43009425  0.27011345    -0.02900
C73         C  0.23419401  0.46499508  0.25612076     0.05700
C74         C  0.23400236  0.48873641  0.28670477     0.03800
H75         H  0.25387216  0.40425026  0.25462856     0.08900
H76         H  0.22557256  0.51857026  0.28682065     0.07700
N77         N  0.30754595  0.73137650  0.60861306    -0.26700
N78         N  0.31624460  0.72037562  0.57410926    -0.34500
C79         C  0.33351037  0.75039701  0.55371571     0.01700
C80         C  0.33465591  0.78186002  0.57635354     0.07700
C81         C  0.31744083  0.76880105  0.61096257    -0.05400
H82         H  0.34392789  0.74935014  0.52447837     0.08400
H83         H  0.31488645  0.78517102  0.63611727     0.09600
Cu84       Cu  0.30343111  0.66500794  0.55598275     0.44200
Cu85       Cu  0.28903095  0.69436723  0.65087106     0.42000
Cu86       Cu  0.27345958  0.59534504  0.62545060     0.43900
N87         N  0.28981787  0.60811586  0.54391349    -0.34000
N88         N  0.28228614  0.58243167  0.56907955    -0.28300
C89         C  0.27827198  0.54860989  0.55210673    -0.04400
C90         C  0.28147458  0.55323714  0.51448099     0.07800
C91         C  0.28867237  0.59139388  0.51048224     0.01600
H92         H  0.27166454  0.52251560  0.56604837     0.09300
H93         H  0.29300670  0.60601488  0.48502539     0.08300
N94         N  0.26869275  0.61632022  0.67976406    -0.35500
N95         N  0.27741367  0.65222720  0.68863611    -0.27700
C96         C  0.27713005  0.65664781  0.72537628    -0.02900
C97         C  0.26643943  0.62199777  0.74063420     0.05700
C98         C  0.26073612  0.59706483  0.71088486     0.03800
H99         H  0.28330443  0.68325506  0.73988355     0.08900
H100        H  0.25330739  0.56706894  0.71188218     0.07700
N101        N  0.24768378  0.84976320  0.11077516    -0.26700
N102        N  0.25585500  0.85817153  0.07600581    -0.34500
C103        C  0.24773397  0.82672824  0.05544591     0.01700
C104        C  0.23509295  0.79707925  0.07850798     0.07700
C105        C  0.23537139  0.81263804  0.11343310    -0.05400
H106        H  0.25388753  0.82556626  0.02599996     0.08400
H107        H  0.22876691  0.79813203  0.13887646     0.09600
Cu108      Cu  0.28473357  0.91172907  0.05842933     0.44200
Cu109      Cu  0.26076554  0.88960040  0.15222203     0.42000
Cu110      Cu  0.31311178  0.98635082  0.12712218     0.43900
N111        N  0.30727081  0.96723358  0.04605675    -0.34000
N112        N  0.31443676  0.99470789  0.07085444    -0.28300
C113        C  0.32149044  0.02721283  0.05347830    -0.04400
C114        C  0.31880778  0.01975698  0.01602841     0.07800
C115        C  0.31072362  0.98145187  0.01240285     0.01600
H116        H  0.32677618  0.05429025  0.06708304     0.09300
H117        H  0.30456722  0.96509017  0.98709208     0.08300
N118        N  0.31509485  0.96790847  0.18083616    -0.35500
N119        N  0.29405655  0.93295180  0.18928938    -0.27700
C120        C  0.30391929  0.92966685  0.22580676    -0.02900
C121        C  0.33311591  0.96409508  0.24125952     0.05700
C122        C  0.33962259  0.98781412  0.21209597     0.03800
H123        H  0.29276384  0.90383175  0.23989684     0.08900
H124        H  0.36110131  0.01723572  0.21346454     0.07700
N125        N  0.34355201  0.21783882  0.89039048    -0.26700
N126        N  0.31743142  0.20908622  0.92379166    -0.34500
C127        C  0.29071259  0.24008546  0.94192837     0.01700
C128        C  0.30098396  0.26994437  0.91890154     0.07700
C129        C  0.33521181  0.25483964  0.88644092    -0.05400
H130        H  0.26486430  0.24070162  0.96978175     0.08400
H131        H  0.34958806  0.26940555  0.86148693     0.09600
Cu132      Cu  0.31713932  0.15503442  0.94258789     0.44200
Cu133      Cu  0.37901445  0.17742880  0.85186133     0.42000
Cu134      Cu  0.35496117  0.07939019  0.87621508     0.43900
N135        N  0.32086219  0.09920776  0.95570038    -0.34000
N136        N  0.33053976  0.07170489  0.93153467    -0.28300
C137        C  0.32871118  0.03927716  0.94913350    -0.04400
C138        C  0.31987859  0.04675089  0.98619624     0.07800
C139        C  0.31476323  0.08500519  0.98931067     0.01600
H140        H  0.33613348  0.01228262  0.93601567     0.09300
H141        H  0.30818047  0.10140830  0.01424938     0.08300
N142        N  0.38532993  0.09718123  0.82380257    -0.35500
N143        N  0.39364955  0.13278205  0.81571102    -0.27700
C144        C  0.40614620  0.13562676  0.77965772    -0.02900
C145        C  0.40653082  0.10034204  0.76411014     0.05700
C146        C  0.39353610  0.07640805  0.79282757     0.03800
H147        H  0.41137819  0.16167901  0.76555127     0.08900
H148        H  0.38594339  0.04637082  0.79113686     0.07700
C149        C  0.44651059  0.02774576  0.49366587    -0.01900
C150        C  0.35298132  0.06235704  0.50544295    -0.01900
C151        C  0.09744689  0.02813109  0.50431084    -0.01900
C152        C  0.20243468  0.06274361  0.49534819    -0.01900
N153        N  0.03854786  0.22411628  0.11326376    -0.26700
N154        N  0.03634676  0.21587855  0.07771530    -0.34500
C155        C  0.02006146  0.24729636  0.05907004     0.01700
C156        C  0.01258573  0.27677556  0.08397627     0.07700
C157        C  0.02489868  0.26098127  0.11812883    -0.05400
H158        H  0.01426398  0.24866967  0.02944584     0.08400
H159        H  0.02253352  0.27508756  0.14454962     0.09600
Cu160      Cu  0.05528530  0.16168928  0.05652882     0.44200
Cu161      Cu  0.05836168  0.18399490  0.15311956     0.42000
Cu162      Cu  0.08365790  0.08743007  0.12339248     0.43900
N163        N  0.06774430  0.10503940  0.04223031    -0.34000
N164        N  0.07371903  0.07823267  0.06642783    -0.28300
C165        C  0.07440934  0.04516748  0.04830094    -0.04400
C166        C  0.07025457  0.05118577  0.01089566     0.07800
C167        C  0.06654509  0.08954722  0.00816094     0.01600
H168        H  0.07812297  0.01857968  0.06145038     0.09300
H169        H  0.06140751  0.10504037  0.98312804     0.08300
N170        N  0.09518876  0.10527501  0.17851816    -0.35500
N171        N  0.08418902  0.14039530  0.18885338    -0.27700
C172        C  0.09485338  0.14324847  0.22567086    -0.02900
C173        C  0.11415994  0.10845893  0.23942634     0.05700
C174        C  0.11398646  0.08492945  0.20874005     0.03800
H175        H  0.08976023  0.16896597  0.24134245     0.08900
H176        H  0.12625792  0.05528612  0.20837974     0.07700
N177        N  0.08019010  0.84716083  0.88216234    -0.26700
N178        N  0.06100007  0.85633246  0.91642073    -0.34500
C179        C  0.04516935  0.82493090  0.93493535     0.01700
C180        C  0.05604538  0.79465742  0.91130555     0.07700
C181        C  0.07845646  0.80979211  0.87801906    -0.05400
H182        H  0.02661565  0.82412567  0.96354989     0.08400
H183        H  0.08950045  0.79490507  0.85247710     0.09600
Cu184      Cu  0.05808301  0.91153044  0.93605197     0.44200
Cu185      Cu  0.10000166  0.88647918  0.84270425     0.42000
Cu186      Cu  0.09290689  0.98479751  0.86922129     0.43900
N187        N  0.06454972  0.96855204  0.94963690    -0.34000
N188        N  0.07537991  0.99511846  0.92548019    -0.28300
C189        C  0.07713005  0.02841955  0.94335342    -0.04400
C190        C  0.06861271  0.02268631  0.98057992     0.07800
C191        C  0.06041146  0.98434773  0.98338633     0.01600
H192        H  0.08605959  0.05492978  0.93029709     0.09300
H193        H  0.05311938  0.96898050  0.00828972     0.08300
N194        N  0.10946406  0.96506337  0.81520902    -0.35500
N195        N  0.10910323  0.92921227  0.80623062    -0.27700
C196        C  0.11491585  0.92497348  0.76975813    -0.02900
C197        C  0.12054694  0.95971885  0.75476473     0.05700
C198        C  0.11757345  0.98462836  0.78430363     0.03800
H199        H  0.11539216  0.89841089  0.75527829     0.06500
H200        H  0.11848926  0.01466403  0.78326253     0.07700
C201        C  0.13933221  0.10800662  0.33565978     0.30400
C202        C  0.13124591  0.12282221  0.37115653    -0.35900
C203        C  0.15710057  0.09898291  0.39994260     0.16400
C204        C  0.18828339  0.06325253  0.39488742     0.22200
C205        C  0.18827201  0.04753138  0.35916399    -0.34100
C206        C  0.16593133  0.07150214  0.32990770     0.16300
O207        O  0.11817359  0.12542881  0.30487340    -0.26100
C208        C  0.13066324  0.09981224  0.27870930     0.06100
C209        C  0.15952339  0.06548352  0.29266271    -0.31000
O210        O  0.20858198  0.04628919  0.42641454    -0.22800
C211        C  0.18377302  0.07030764  0.45282431    -0.02800
C212        C  0.14961214  0.10379953  0.43643020    -0.17200
H213        H  0.10587275  0.15095631  0.37605896     0.20800
H214        H  0.20014232  0.01831360  0.35451109     0.19100
H215        H  0.17353598  0.03995105  0.27764842     0.19100
H216        H  0.11775096  0.12858743  0.44798612     0.15000
C217        C  0.15315521  0.99718319  0.66813802     0.30400
C218        C  0.17734949  0.02487490  0.64342613    -0.35900
C219        C  0.15201212  0.01610178  0.60631882     0.16400
C220        C  0.10296513  0.98346922  0.59399356     0.22200
C221        C  0.08057361  0.95490512  0.61852900    -0.34100
C222        C  0.10818443  0.96314978  0.65595996     0.16300
O223        O  0.16333419  0.00061217  0.70420715    -0.26100
C224        C  0.12624393  0.96804380  0.71557323     0.06100
C225        C  0.09144617  0.94351345  0.68677587    -0.31000
O226        O  0.07781847  0.98370878  0.55830989    -0.22800
C227        C  0.11150903  0.01714061  0.54648992    -0.02800
C228        C  0.16123242  0.03705841  0.57654582    -0.17200
H229        H  0.20698447  0.05227871  0.65260921     0.20800
H230        H  0.04190757  0.92864963  0.60933611     0.19100
H231        H  0.05499184  0.91585791  0.68840132     0.19100
H232        H  0.20161516  0.06277230  0.57893989     0.15000
C233        C  0.41599351  0.06045998  0.60522962     0.30400
C234        C  0.43098820  0.04299354  0.63926537    -0.35900
C235        C  0.42237028  0.06575734  0.67091879     0.16400
C236        C  0.39796217  0.10280811  0.66870883     0.22200
C237        C  0.37763091  0.11939315  0.63506164    -0.34100
C238        C  0.38699252  0.09652608  0.60413883     0.16300
O239        O  0.41541183  0.04487222  0.57188312    -0.26100
C240        C  0.37751615  0.07010425  0.54844762     0.06100
C241        C  0.36039452  0.10288717  0.56890438    -0.31000
O242        O  0.39002122  0.11911639  0.70087299    -0.22800
C243        C  0.40853597  0.09233587  0.72452216    -0.02800
C244        C  0.42815313  0.05818794  0.70758998    -0.17200
H245        H  0.44215737  0.01347617  0.64095909     0.20800
H246        H  0.35258218  0.14788718  0.63310497     0.19100
H247        H  0.33023945  0.12889337  0.56122491     0.19100
H248        H  0.44420248  0.03192094  0.72033196     0.15000
C249        C  0.39797664  0.00305161  0.32866692     0.30400
C250        C  0.43065472  0.03109924  0.35447146    -0.35900
C251        C  0.42014848  0.02228662  0.39125459     0.16400
C252        C  0.37722791  0.98913269  0.40206316     0.22200
C253        C  0.34577309  0.96061647  0.37644970    -0.34100
C254        C  0.35813199  0.96897151  0.33953619     0.16300
O255        O  0.39513420  0.00595544  0.29274144    -0.26100
C256        C  0.35391455  0.97312725  0.28043809     0.06100
C257        C  0.32991326  0.94893548  0.30829564    -0.31000
O258        O  0.37407822  0.98770728  0.43795734    -0.22800
C259        C  0.42042841  0.01992499  0.45143028    -0.02800
C260        C  0.44755032  0.04210571  0.42246175    -0.17200
H261        H  0.45735671  0.05842676  0.34643835     0.20800
H262        H  0.31423176  0.93387331  0.38462628     0.19100
H263        H  0.29336133  0.92115296  0.30590704     0.19100
H264        H  0.48506804  0.06854354  0.42278945     0.15000
C265        C  0.35227346  0.87880875  0.56503642     0.30400
C266        C  0.33187984  0.91669724  0.57182840    -0.35900
C267        C  0.36441541  0.94153240  0.54482313     0.16400
C268        C  0.41325176  0.92994590  0.51412272     0.22200
C269        C  0.42831566  0.89234106  0.50642298    -0.34100
C270        C  0.39802782  0.86759139  0.53311740     0.16300
O271        O  0.32492898  0.85023798  0.58520491    -0.26100
C272        C  0.35329298  0.82066919  0.56553271     0.06100
C273        C  0.39887719  0.82996756  0.53289505    -0.31000
O274        O  0.44011292  0.95745481  0.49322924    -0.22800
C275        C  0.40751628  0.98869784  0.50928270    -0.02800
C276        C  0.35509732  0.97905733  0.54142772    -0.17200
H277        H  0.29277673  0.92604872  0.59607099     0.20800
H278        H  0.45680960  0.88284882  0.48052072     0.19100
H279        H  0.42715241  0.81164278  0.51174218     0.19100
H280        H  0.31233634  0.99506610  0.56020466     0.15000
C281        C  0.43805842  0.21753201  0.45061164     0.30400
C282        C  0.46210291  0.19595923  0.48069925    -0.35900
C283        C  0.44269459  0.15782377  0.47577677     0.16400
C284        C  0.40119113  0.14113854  0.44420787     0.22200
C285        C  0.37883473  0.16270324  0.41285930    -0.34100
C286        C  0.39806658  0.20166623  0.41760374     0.16300
O287        O  0.43586560  0.25396263  0.45174001    -0.26100
C288        C  0.39479062  0.26241591  0.41883826     0.06100
C289        C  0.37052100  0.23104663  0.39605187    -0.31000
O290        O  0.37264910  0.10572236  0.44936990    -0.22800
C291        C  0.39702399  0.09872077  0.48495046    -0.02800
C292        C  0.43951103  0.13198807  0.50122428    -0.17200
H293        H  0.48188020  0.20853686  0.50741420     0.20800
H294        H  0.34271472  0.15050668  0.38752982     0.19100
H295        H  0.33066460  0.22997173  0.36883223     0.19100
H296        H  0.45262163  0.14080658  0.52862828     0.15000
C297        C  0.98551115  0.43812075  0.04968610     0.30400
C298        C  0.00266018  0.41623812  0.08123418    -0.35900
C299        C  0.98868008  0.37703597  0.07572650     0.16400
C300        C  0.95853606  0.36119078  0.04176069     0.22200
C301        C  0.93902903  0.38294139  0.01136559    -0.34100
C302        C  0.95325955  0.42126849  0.01695189     0.16300
O303        O  0.00776911  0.47439325  0.04596674    -0.26100
C304        C  0.99191881  0.48114810  0.00985660     0.06100
C305        C  0.95729374  0.44757949  0.99180619    -0.31000
O306        O  0.96178291  0.32469813  0.04071091    -0.22800
C307        C  0.99295254  0.31600606  0.07467218    -0.02800
C308        C  0.01019374  0.34745936  0.09798253    -0.17200
H309        H  0.03042631  0.42855120  0.10754231     0.20800
H310        H  0.92474689  0.37052070  0.98425820     0.19100
H311        H  0.94996140  0.43958108  0.96352715     0.19100
H312        H  0.04004939  0.34845026  0.12645068     0.15000
C313        C  0.99552991  0.71078276  0.95246979     0.30400
C314        C  0.46000334  0.68993938  0.98106702    -0.35900
C315        C  0.97515011  0.65192472  0.97823585     0.16400
C316        C  0.02465754  0.63442829  0.95060250     0.22200
C317        C  0.05976645  0.65550255  0.92070462    -0.34100
C318        C  0.04271700  0.69449766  0.92287025     0.16300
O319        O  0.99391435  0.74711028  0.95160650    -0.26100
C320        C  0.03947022  0.75533836  0.92074426     0.06100
C321        C  0.07105791  0.72373430  0.90124352    -0.31000
O322        O  0.03312026  0.59797661  0.95671867    -0.22800
C323        C  0.98214666  0.59156377  0.98790708    -0.02800
C324        C  0.45086637  0.62596896  0.00177029    -0.17200
H325        H  0.42676489  0.70281587  0.00487715     0.20800
H326        H  0.09724061  0.64275478  0.89771378     0.19100
H327        H  0.11266460  0.72264210  0.87588783     0.19100
H328        H  0.41752570  0.63320289  0.02703779     0.15000
C329        C  0.19765390  0.41929084  0.97469044     0.30400
C330        C  0.18065378  0.38178257  0.98204162    -0.35900
C331        C  0.21680128  0.35645326  0.95648905     0.16400
C332        C  0.26942483  0.36702427  0.92583722     0.22200
C333        C  0.28883202  0.40514121  0.91892243    -0.34100
C334        C  0.25025090  0.43070042  0.94485679     0.16300
O335        O  0.17492758  0.44684344  0.99656079    -0.26100
C336        C  0.21572512  0.47799341  0.98284929     0.06100
C337        C  0.26757727  0.46841880  0.95061664    -0.31000
O338        O  0.30543554  0.33797328  0.90763712    -0.22800
C339        C  0.27516560  0.30890427  0.92733444    -0.02800
C340        C  0.22000053  0.31899989  0.95796193    -0.17200
H341        H  0.14953674  0.37283888  0.00755194     0.20800
H342        H  0.33516679  0.41413650  0.89618481     0.19100
H343        H  0.31950910  0.48502083  0.93463984     0.19100
H344        H  0.18931821  0.30142101  0.97900463     0.15000
C345        C  0.22851882  0.46748693  0.15981910     0.30400
C346        C  0.25037110  0.45481697  0.12437773    -0.35900
C347        C  0.23029440  0.47986506  0.09599955     0.16400
C348        C  0.18848064  0.51411989  0.10128502     0.22200
C349        C  0.17474611  0.52779009  0.13716002    -0.34100
C350        C  0.19334888  0.50297392  0.16585205     0.16300
O351        O  0.24655558  0.44953543  0.19055176    -0.26100
C352        C  0.22295052  0.47386410  0.21678219     0.06100
C353        C  0.18949309  0.50768094  0.20300023    -0.31000
O354        O  0.16952560  0.53163041  0.07001331    -0.22800
C355        C  0.20491411  0.50949077  0.04367227    -0.02800
C356        C  0.24736919  0.47721657  0.05988286    -0.17200
H357        H  0.28289008  0.42767831  0.11934228     0.20800
H358        H  0.15614506  0.55629681  0.14269172     0.19100
H359        H  0.16767154  0.53231080  0.21813655     0.19100
H360        H  0.28376886  0.45362239  0.04779369     0.15000
C361        C  0.21458704  0.64481435  0.01534705     0.30400
C362        C  0.20795294  0.68165603  0.00502380    -0.35900
C363        C  0.21465828  0.70819980  0.03320861     0.16400
C364        C  0.23168840  0.69953971  0.06956147     0.22200
C365        C  0.24449755  0.66226129  0.07992118    -0.34100
C366        C  0.23540752  0.63540480  0.05101036     0.16300
O367        O  0.21941852  0.61667885  0.99231875    -0.26100
C368        C  0.24770930  0.58733550  0.01183033     0.06100
C369        C  0.25570501  0.59810643  0.04948331    -0.31000
O370        O  0.23990957  0.72973207  0.09105775    -0.22800
C371        C  0.22802127  0.75750418  0.06765323    -0.02800
C372        C  0.21263601  0.74556525  0.03137424    -0.17200
H373        H  0.20394789  0.68928199  0.97659130     0.20800
H374        H  0.26356958  0.65488555  0.10806453     0.19100
H375        H  0.28304703  0.58314838  0.07294986     0.19100
H376        H  0.20249339  0.76198356  0.00702337     0.15000
C377        C  0.23329062  0.58413310  0.82755518     0.30400
C378        C  0.20672262  0.55650188  0.85219839    -0.35900
C379        C  0.23141470  0.56499593  0.88950968     0.16400
C380        C  0.28070055  0.59751035  0.90210841     0.22200
C381        C  0.30604911  0.62587652  0.87755708    -0.34100
C382        C  0.27994570  0.61781695  0.83993864     0.16300
O383        O  0.22305543  0.58100491  0.79139281    -0.26100
C384        C  0.26178203  0.61345220  0.78007243     0.06100
C385        C  0.29793899  0.63755372  0.80913077    -0.31000
O386        O  0.30681241  0.59680400  0.93784569    -0.22800
C387        C  0.27350920  0.56310647  0.94946940    -0.02800
C388        C  0.22431786  0.54342186  0.91912542    -0.17200
H389        H  0.17551490  0.52935255  0.84277256     0.20800
H390        H  0.34541087  0.65195269  0.88692406     0.19100
H391        H  0.33516604  0.66511562  0.80770298     0.19100
H392        H  0.19110167  0.51680142  0.91607955     0.15000
C393        C  0.46737069  0.49689129  0.82485011     0.30400
C394        C  0.45225930  0.52337245  0.85235921    -0.35900
C395        C  0.97731586  0.51250856  0.88821789     0.16400
C396        C  0.01831024  0.47899296  0.89680094     0.22200
C397        C  0.03417630  0.45197447  0.86933112    -0.34100
C398        C  0.00562445  0.46223790  0.83315217     0.16300
O399        O  0.45269973  0.50193024  0.78938303    -0.26100
C400        C  0.97995693  0.46981486  0.77455455     0.06100
C401        C  0.01320195  0.44394381  0.80038159    -0.31000
O402        O  0.04604412  0.47728603  0.93216169    -0.22800
C403        C  0.01840416  0.50957428  0.94782401    -0.02800
C404        C  0.97652562  0.53206051  0.91999118    -0.17200
H405        H  0.42840273  0.55124009  0.84612632     0.20800
H406        H  0.06816113  0.42532317  0.87559614     0.19100
H407        H  0.04194590  0.41621879  0.79561204     0.19100
H408        H  0.44906896  0.55922204  0.91952088     0.15000
C409        C  0.12023911  0.21176020  0.57039556     0.30400
C410        C  0.10006536  0.17386073  0.57710090    -0.35900
C411        C  0.13951260  0.14868064  0.55133620     0.16400
C412        C  0.19417491  0.16017902  0.52191406     0.22200
C413        C  0.21630152  0.19755684  0.51553055    -0.34100
C414        C  0.17754940  0.22265745  0.54073573     0.16300
O415        O  0.07685820  0.24019715  0.58695694    -0.26100
C416        C  0.10659705  0.26913808  0.56725413     0.06100
C417        C  0.17003881  0.25989423  0.53843518    -0.31000
O418        O  0.21830877  0.13257729  0.50043329    -0.22800
C419        C  0.17503033  0.10153373  0.51366162    -0.02800
C420        C  0.12244225  0.11105226  0.54563759    -0.17200
H421        H  0.55059771  0.16481588  0.59905521     0.20800
H422        H  0.25184625  0.20660604  0.49074790     0.19100
H423        H  0.20018423  0.27761151  0.51740758     0.19100
H424        H  0.07106618  0.09457375  0.56173021     0.15000
C425        C  0.47973495  0.59685816  0.16452946     0.30400
C426        C  0.50830517  0.60919191  0.13032287    -0.35900
C427        C  0.49077031  0.58348969  0.10109543     0.16400
C428        C  0.44514333  0.54875390  0.10390410     0.22200
C429        C  0.42684504  0.53505882  0.13907635    -0.34100
C430        C  0.44342096  0.56070025  0.16903020     0.16300
O431        O  0.48638191  0.61683769  0.19526449    -0.26100
C432        C  0.45506792  0.59328346  0.22038742     0.06100
C433        C  0.42940199  0.55762143  0.20584583    -0.31000
O434        O  0.42359294  0.53206430  0.07103766    -0.22800
C435        C  0.45944831  0.55622921  0.04653773    -0.02800
C436        C  0.50916170  0.58711077  0.06574257    -0.17200
H437        H  0.54070591  0.63709590  0.12657966     0.20800
H438        H  0.40464257  0.50641699  0.14302686     0.19100
H439        H  0.40312243  0.53331063  0.22024729     0.19100
H440        H  0.55087858  0.61092774  0.05647856     0.15000
C441        C  0.62965898  0.87858013  0.42504557     0.30400
C442        C  0.61972250  0.91625637  0.41565562    -0.35900
C443        C  0.64018276  0.94287667  0.44454365     0.16400
C444        C  0.16535392  0.93312897  0.47974117     0.22200
C445        C  0.17441351  0.89582921  0.48909888    -0.34100
C446        C  0.15829835  0.86934006  0.46058480     0.16300
O447        O  0.60291743  0.84877190  0.40392776    -0.26100
C448        C  0.61504290  0.82031013  0.42654477     0.06100
C449        C  0.14991393  0.83172259  0.46202739    -0.31000
O450        O  0.16342135  0.96134449  0.50326048    -0.22800
C451        C  0.13626265  0.99120419  0.48408126    -0.02800
C452        C  0.62372648  0.98018927  0.44653448    -0.17200
H453        H  0.59229991  0.92417586  0.38833169     0.20800
H454        H  0.18232842  0.88771098  0.51731879     0.19100
H455        H  0.16131904  0.81495823  0.48607885     0.19100
H456        H  0.59576792  0.99505204  0.42314640     0.15000
N457        N  0.03113445  0.72873255  0.38570070    -0.26700
N458        N  0.04915801  0.72039198  0.42055748    -0.34500
C459        C  0.08238129  0.75135814  0.43986926     0.01700
C460        C  0.08518918  0.78096792  0.41628904     0.07700
C461        C  0.05174753  0.76557891  0.38209214    -0.05400
H462        H  0.10272443  0.75215905  0.46909609     0.08400
H463        H  0.04402709  0.78001466  0.35646826     0.09600
Cu464      Cu  0.03061809  0.66711595  0.44085756     0.44200
Cu465      Cu  0.98582683  0.68801571  0.34514366     0.42000
Cu466      Cu  0.97074771  0.59157364  0.37448829     0.43900
N467        N  0.02173831  0.61139533  0.45470983    -0.34000
N468        N  0.00488816  0.58390528  0.43017592    -0.28300
C469        C  0.01027260  0.55135923  0.44739432    -0.04400
C470        C  0.02833668  0.55859331  0.48465644     0.07800
C471        C  0.03547196  0.59697620  0.48831610     0.01600
H472        H  0.99893932  0.52436122  0.43382416     0.09300
H473        H  0.04962366  0.61323498  0.51352766     0.08300
N474        N  0.95262628  0.60673872  0.31994436    -0.35500
N475        N  0.96017962  0.64163987  0.30940589    -0.27700
C476        C  0.95850819  0.64176503  0.27252462    -0.02900
C477        C  0.94915346  0.60539842  0.25915477     0.05700
C478        C  0.94471505  0.58387661  0.28999932     0.03800
H479        H  0.96774849  0.66652153  0.25658666     0.08900
H480        H  0.94232563  0.55382405  0.29075416     0.07700
N481        N  0.01197395  0.35666707  0.60127731    -0.26700
N482        N  0.03872816  0.36638017  0.56824520    -0.34500
C483        C  0.07388469  0.33639376  0.55044497     0.01700
C484        C  0.56878935  0.30663875  0.57371501     0.07700
C485        C  0.52830055  0.32031526  0.60553068    -0.05400
H486        H  0.10421024  0.33661209  0.52317926     0.08400
H487        H  0.51786742  0.30559873  0.63066691     0.09600
Cu488      Cu  0.03679391  0.42080943  0.55149042     0.44200
Cu489      Cu  0.97607212  0.39443694  0.64090063     0.42000
Cu490      Cu  0.00565518  0.49268587  0.62297060     0.43900
N491        N  0.03495493  0.47723218  0.54212227    -0.34000
N492        N  0.02658732  0.50354504  0.56765565    -0.28300
C493        C  0.02678899  0.53680520  0.55140303    -0.04400
C494        C  0.03331176  0.53093661  0.51392631     0.07800
C495        C  0.03897248  0.49289852  0.50919048     0.01600
H496        H  0.01899577  0.56320241  0.56563664     0.09300
H497        H  0.04333147  0.47753862  0.48351433     0.08300
N498        N  0.98369058  0.47123296  0.67495580    -0.35500
N499        N  0.97506180  0.43514789  0.68067504    -0.27700
C500        C  0.97170720  0.42925267  0.71669442    -0.02900
C501        C  0.97690732  0.46324470  0.73477071     0.05700
C502        C  0.98350776  0.48943454  0.70764499     0.03800
H503        H  0.46720797  0.40210552  0.72874393     0.08900
H504        H  0.99189279  0.51931178  0.71151335     0.07700
C505        C  0.78974536  0.55135505  0.99163744    -0.01900
C506        C  0.68665983  0.51690232  0.00107739    -0.01900
C507        C  0.94054858  0.55202127  0.00315303    -0.01900
C508        C  0.53663175  0.51798653  0.99072649    -0.01900
N509        N  0.81926969  0.35226152  0.38274425    -0.26700
N510        N  0.83579311  0.36107065  0.41804921    -0.34500
C511        C  0.86661649  0.33046265  0.43587598     0.01700
C512        C  0.86820483  0.30108240  0.41062619     0.07700
C513        C  0.83747857  0.31589471  0.37724345    -0.05400
H514        H  0.88509512  0.32949933  0.46517092     0.08400
H515        H  0.83007083  0.30151102  0.35082805     0.09600
Cu516      Cu  0.81283598  0.41436418  0.44025505     0.44200
Cu517      Cu  0.77930639  0.39036500  0.34314501     0.42000
Cu518      Cu  0.75842884  0.48599185  0.37252809     0.43900
N519        N  0.78668296  0.47014514  0.45413702    -0.34000
N520        N  0.76988484  0.49612406  0.42954607    -0.28300
C521        C  0.76361246  0.52923222  0.44723784    -0.04400
C522        C  0.77686028  0.52408801  0.48473961     0.07800
C523        C  0.78970543  0.48612802  0.48802858     0.01600
H524        H  0.75235271  0.55536379  0.43371233     0.09300
H525        H  0.80376331  0.47136929  0.51323670     0.08300
N526        N  0.74801868  0.46837416  0.31713450    -0.35500
N527        N  0.75634008  0.43311983  0.30694202    -0.27700
C528        C  0.74900996  0.43009431  0.27011350    -0.02900
C529        C  0.73419443  0.46499513  0.25612080     0.05700
C530        C  0.73400288  0.48873646  0.28670483     0.03800
H531        H  0.75387228  0.40425027  0.25462857     0.08900
H532        H  0.72557315  0.51857033  0.28682071     0.07700
N533        N  0.80754623  0.73137649  0.60861316    -0.26700
N534        N  0.81624489  0.72037562  0.57410936    -0.34500
C535        C  0.83351077  0.75039702  0.55371586     0.01700
C536        C  0.83465636  0.78186002  0.57635366     0.07700
C537        C  0.81744122  0.76880104  0.61096270    -0.05400
H538        H  0.84392826  0.74935015  0.52447843     0.08400
H539        H  0.81488677  0.78517100  0.63611738     0.09600
Cu540      Cu  0.80343100  0.66500794  0.55598281     0.44200
Cu541      Cu  0.78903087  0.69436721  0.65087113     0.42000
Cu542      Cu  0.77345923  0.59534503  0.62545063     0.43900
N543        N  0.78981770  0.60811586  0.54391353    -0.34000
N544        N  0.78228590  0.58243168  0.56907959    -0.28300
C545        C  0.77827184  0.54860990  0.55210677    -0.04400
C546        C  0.78147457  0.55323714  0.51448104     0.07800
C547        C  0.78867235  0.59139388  0.51048227     0.01600
H548        H  0.77166438  0.52251558  0.56604843     0.09300
H549        H  0.79300677  0.60601486  0.48502547     0.08300
N550        N  0.76869249  0.61632020  0.67976410    -0.35500
N551        N  0.77741350  0.65222719  0.68863615    -0.27700
C552        C  0.77712990  0.65664779  0.72537632    -0.02900
C553        C  0.76643918  0.62199777  0.74063424     0.05700
C554        C  0.76073582  0.59706482  0.71088490     0.03800
H555        H  0.78330434  0.68325505  0.73988359     0.08900
H556        H  0.75330698  0.56706893  0.71188222     0.07700
N557        N  0.74768364  0.84976316  0.11077523    -0.26700
N558        N  0.75585472  0.85817152  0.07600588    -0.34500
C559        C  0.74773362  0.82672824  0.05544597     0.01700
C560        C  0.73509265  0.79707923  0.07850802     0.07700
C561        C  0.73537121  0.81263800  0.11343315    -0.05400
H562        H  0.75388710  0.82556629  0.02600001     0.08400
H563        H  0.72876684  0.79813197  0.13887650     0.09600
Cu564      Cu  0.78473326  0.91172908  0.05842945     0.44200
Cu565      Cu  0.76076569  0.88960033  0.15222212     0.42000
Cu566      Cu  0.81311136  0.98635084  0.12712226     0.43900
N567        N  0.80727052  0.96723359  0.04605685    -0.34000
N568        N  0.81443648  0.99470791  0.07085453    -0.28300
C569        C  0.82149030  0.02721284  0.05347838    -0.04400
C570        C  0.81880770  0.01975698  0.01602849     0.07800
C571        C  0.81072345  0.98145187  0.01240295     0.01600
H572        H  0.82677608  0.05429028  0.06708312     0.09300
H573        H  0.80456709  0.96509017  0.98709220     0.08300
N574        N  0.81509436  0.96790847  0.18083624    -0.35500
N575        N  0.79405632  0.93295178  0.18928946    -0.27700
C576        C  0.80391905  0.92966686  0.22580683    -0.02900
C577        C  0.83311540  0.96409509  0.24125960     0.05700
C578        C  0.83962192  0.98781413  0.21209605     0.03800
H579        H  0.79276380  0.90383169  0.23989694     0.08900
H580        H  0.86110048  0.01723577  0.21346462     0.07700
N581        N  0.84355251  0.21783883  0.89039052    -0.26700
N582        N  0.81743186  0.20908622  0.92379170    -0.34500
C583        C  0.79071299  0.24008547  0.94192840     0.01700
C584        C  0.80098438  0.26994438  0.91890157     0.07700
C585        C  0.83521229  0.25483963  0.88644099    -0.05400
H586        H  0.76486461  0.24070162  0.96978178     0.08400
H587        H  0.84958859  0.26940559  0.86148692     0.09600
Cu588      Cu  0.81713968  0.15503441  0.94258792     0.44200
Cu589      Cu  0.87901484  0.17742880  0.85186138     0.42000
Cu590      Cu  0.85496135  0.07939016  0.87621513     0.43900
N591        N  0.82086244  0.09920775  0.95570043    -0.34000
N592        N  0.83053999  0.07170486  0.93153472    -0.28300
C593        C  0.82871128  0.03927715  0.94913358    -0.04400
C594        C  0.81987862  0.04675088  0.98619630     0.07800
C595        C  0.81476334  0.08500519  0.98931072     0.01600
H596        H  0.83613356  0.01228257  0.93601574     0.09300
H597        H  0.80818052  0.10140831  0.01424942     0.08300
N598        N  0.88532984  0.09718122  0.82380258    -0.35500
N599        N  0.89364960  0.13278204  0.81571105    -0.27700
C600        C  0.90614629  0.13562677  0.77965775    -0.02900
C601        C  0.90653080  0.10034205  0.76411016     0.05700
C602        C  0.89353593  0.07640805  0.79282757     0.03800
H603        H  0.91137848  0.16167902  0.76555132     0.08900
H604        H  0.88594317  0.04637080  0.79113684     0.07700
C605        C  0.94651057  0.02774576  0.49366591    -0.01900
C606        C  0.85298132  0.06235704  0.50544297    -0.01900
C607        C  0.59744689  0.02813107  0.50431083    -0.01900
C608        C  0.70243467  0.06274360  0.49534820    -0.01900
N609        N  0.53854826  0.22411629  0.11326365    -0.26700
N610        N  0.53634697  0.21587855  0.07771518    -0.34500
C611        C  0.52006156  0.24729636  0.05906994     0.01700
C612        C  0.51258590  0.27677556  0.08397616     0.07700
C613        C  0.52489906  0.26098127  0.11812872    -0.05400
H614        H  0.51426387  0.24866967  0.02944571     0.08400
H615        H  0.52253397  0.27508756  0.14454951     0.09600
Cu616      Cu  0.55528517  0.16168928  0.05652870     0.44200
Cu617      Cu  0.55836219  0.18399492  0.15311945     0.42000
Cu618      Cu  0.58365783  0.08743012  0.12339243     0.43900
N619        N  0.56774421  0.10503941  0.04223023    -0.34000
N620        N  0.57371902  0.07823268  0.06642777    -0.28300
C621        C  0.57440941  0.04516751  0.04830089    -0.04400
C622        C  0.57025458  0.05118577  0.01089560     0.07800
C623        C  0.56654501  0.08954721  0.00816089     0.01600
H624        H  0.57812313  0.01857967  0.06145036     0.09300
H625        H  0.56140732  0.10504040  0.98312792     0.08300
N626        N  0.59518886  0.10527504  0.17851812    -0.35500
N627        N  0.58418940  0.14039535  0.18885333    -0.27700
C628        C  0.59485386  0.14324854  0.22567081    -0.02900
C629        C  0.61416017  0.10845899  0.23942631     0.05700
C630        C  0.61398646  0.08492949  0.20874002     0.03800
H631        H  0.58976091  0.16896606  0.24134239     0.08900
H632        H  0.62625769  0.05528614  0.20837973     0.07700
N633        N  0.58018954  0.84716081  0.88216228    -0.26700
N634        N  0.56099934  0.85633244  0.91642065    -0.34500
C635        C  0.54516849  0.82493089  0.93493526     0.01700
C636        C  0.55604463  0.79465740  0.91130548     0.07700
C637        C  0.57845591  0.80979208  0.87801900    -0.05400
H638        H  0.52661466  0.82412566  0.96354979     0.08400
H639        H  0.58950010  0.79490504  0.85247706     0.09600
Cu640      Cu  0.55808243  0.91153045  0.93605186     0.44200
Cu641      Cu  0.60000132  0.88647916  0.84270422     0.42000
Cu642      Cu  0.59290651  0.98479752  0.86922123     0.43900
N643        N  0.56454946  0.96855205  0.94963683    -0.34000
N644        N  0.57537967  0.99511847  0.92548012    -0.28300
C645        C  0.57712997  0.02841957  0.94335336    -0.04400
C646        C  0.56861270  0.02268631  0.98057987     0.07800
C647        C  0.56041137  0.98434773  0.98338627     0.01600
H648        H  0.58605953  0.05492975  0.93029705     0.09300
H649        H  0.55311930  0.96898050  0.00828965     0.08300
N650        N  0.60946368  0.96506335  0.81520897    -0.35500
N651        N  0.60910287  0.92921224  0.80623059    -0.27700
C652        C  0.61491550  0.92497345  0.76975810    -0.02900
C653        C  0.62054657  0.95971880  0.75476469     0.05700
C654        C  0.61757305  0.98462833  0.78430358     0.03800
H655        H  0.61539183  0.89841084  0.75527827     0.06500
H656        H  0.61848885  0.01466397  0.78326246     0.07700
C657        C  0.63933255  0.10800668  0.33565977     0.30400
C658        C  0.63124626  0.12282231  0.37115653    -0.35900
C659        C  0.65710074  0.09898294  0.39994261     0.16400
C660        C  0.68828340  0.06325257  0.39488742     0.22200
C661        C  0.68827197  0.04753139  0.35916398    -0.34100
C662        C  0.66593141  0.07150219  0.32990769     0.16300
O663        O  0.61817403  0.12542890  0.30487339    -0.26100
C664        C  0.63066346  0.09981230  0.27870928     0.06100
C665        C  0.65952337  0.06548356  0.29266271    -0.31000
O666        O  0.70858189  0.04628920  0.42641454    -0.22800
C667        C  0.68377302  0.07030765  0.45282432    -0.02800
C668        C  0.64961223  0.10379958  0.43643022    -0.17200
H669        H  0.60587336  0.15095632  0.37605895     0.20800
H670        H  0.70014208  0.01831372  0.35451109     0.19100
H671        H  0.67353571  0.03995108  0.27764842     0.19100
H672        H  0.61775123  0.12858743  0.44798611     0.15000
C673        C  0.65315499  0.99718313  0.66813800     0.30400
C674        C  0.67734942  0.02487487  0.64342613    -0.35900
C675        C  0.65201200  0.01610173  0.60631881     0.16400
C676        C  0.60296500  0.98346921  0.59399354     0.22200
C677        C  0.58057339  0.95490507  0.61852895    -0.34100
C678        C  0.60818422  0.96314975  0.65595993     0.16300
O679        O  0.66333390  0.00061211  0.70420713    -0.26100
C680        C  0.62624362  0.96804375  0.71557319     0.06100
C681        C  0.59144589  0.94351339  0.68677583    -0.31000
O682        O  0.57781837  0.98370877  0.55830987    -0.22800
C683        C  0.61150896  0.01714058  0.54648990    -0.02800
C684        C  0.66123256  0.03705847  0.57654581    -0.17200
H685        H  0.70698438  0.05227854  0.65260917     0.20800
H686        H  0.54190753  0.92864968  0.60933608     0.19100
H687        H  0.55499163  0.91585790  0.68840127     0.19100
H688        H  0.70161448  0.06277174  0.57893990     0.15000
C689        C  0.91599367  0.06046002  0.60522963     0.30400
C690        C  0.93098841  0.04299354  0.63926538    -0.35900
C691        C  0.92237054  0.06575740  0.67091880     0.16400
C692        C  0.89796248  0.10280816  0.66870885     0.22200
C693        C  0.87763115  0.11939321  0.63506166    -0.34100
C694        C  0.88699268  0.09652610  0.60413884     0.16300
O695        O  0.91541193  0.04487224  0.57188314    -0.26100
C696        C  0.87751619  0.07010426  0.54844764     0.06100
C697        C  0.86039455  0.10288720  0.56890439    -0.31000
O698        O  0.89002147  0.11911644  0.70087301    -0.22800
C699        C  0.90853614  0.09233590  0.72452217    -0.02800
C700        C  0.92815335  0.05818797  0.70759000    -0.17200
H701        H  0.94215749  0.01347632  0.64095910     0.20800
H702        H  0.85258249  0.14788714  0.63310498     0.19100
H703        H  0.83023952  0.12889331  0.56122496     0.19100
H704        H  0.94420261  0.03192102  0.72033196     0.15000
C705        C  0.89797647  0.00305159  0.32866698     0.30400
C706        C  0.93065465  0.03109921  0.35447151    -0.35900
C707        C  0.92014838  0.02228658  0.39125464     0.16400
C708        C  0.87722780  0.98913267  0.40206322     0.22200
C709        C  0.84577291  0.96061645  0.37644976    -0.34100
C710        C  0.85813177  0.96897150  0.33953626     0.16300
O711        O  0.89513393  0.00595543  0.29274151    -0.26100
C712        C  0.85391415  0.97312726  0.28043816     0.06100
C713        C  0.82991287  0.94893547  0.30829571    -0.31000
O714        O  0.87407813  0.98770727  0.43795741    -0.22800
C715        C  0.92042834  0.01992496  0.45143033    -0.02800
C716        C  0.94755033  0.04210575  0.42246180    -0.17200
H717        H  0.95735663  0.05842670  0.34643842     0.20800
H718        H  0.81423158  0.93387333  0.38462634     0.19100
H719        H  0.79336088  0.92115300  0.30590711     0.19100
H720        H  0.98506743  0.06854317  0.42278946     0.15000
C721        C  0.85227349  0.87880876  0.56503650     0.30400
C722        C  0.83187985  0.91669725  0.57182846    -0.35900
C723        C  0.86441537  0.94153241  0.54482320     0.16400
C724        C  0.91325175  0.92994590  0.51412278     0.22200
C725        C  0.92831562  0.89234107  0.50642309    -0.34100
C726        C  0.89802785  0.86759140  0.53311747     0.16300
O727        O  0.82492916  0.85023799  0.58520502    -0.26100
C728        C  0.85329325  0.82066919  0.56553283     0.06100
C729        C  0.89887732  0.82996758  0.53289516    -0.31000
O730        O  0.94011292  0.95745481  0.49322931    -0.22800
C731        C  0.90751628  0.98869785  0.50928277    -0.02800
C732        C  0.85509739  0.97905731  0.54142774    -0.17200
H733        H  0.79277665  0.92604875  0.59607114     0.20800
H734        H  0.95680974  0.88284879  0.48052070     0.19100
H735        H  0.92715260  0.81164278  0.51174227     0.19100
H736        H  0.81233607  0.99506627  0.56020488     0.15000
C737        C  0.93805847  0.21753201  0.45061165     0.30400
C738        C  0.96210292  0.19595924  0.48069927    -0.35900
C739        C  0.94269459  0.15782377  0.47577678     0.16400
C740        C  0.90119119  0.14113854  0.44420788     0.22200
C741        C  0.87883489  0.16270324  0.41285932    -0.34100
C742        C  0.89806670  0.20166623  0.41760374     0.16300
O743        O  0.93586556  0.25396263  0.45174002    -0.26100
C744        C  0.89479059  0.26241591  0.41883826     0.06100
C745        C  0.87052109  0.23104662  0.39605189    -0.31000
O746        O  0.87264913  0.10572236  0.44936992    -0.22800
C747        C  0.89702398  0.09872078  0.48495048    -0.02800
C748        C  0.93951102  0.13198808  0.50122432    -0.17200
H749        H  0.98188009  0.20853686  0.50741421     0.20800
H750        H  0.84271492  0.15050666  0.38752981     0.19100
H751        H  0.83066464  0.22997171  0.36883221     0.19100
H752        H  0.95262163  0.14080657  0.52862821     0.15000
C753        C  0.48551116  0.43812074  0.04968608     0.30400
C754        C  0.50266028  0.41623811  0.08123416    -0.35900
C755        C  0.48868003  0.37703595  0.07572645     0.16400
C756        C  0.45853584  0.36119078  0.04176066     0.22200
C757        C  0.43902880  0.38294139  0.01136555    -0.34100
C758        C  0.45325946  0.42126850  0.01695188     0.16300
O759        O  0.50776921  0.47439323  0.04596673    -0.26100
C760        C  0.49191884  0.48114809  0.00985660     0.06100
C761        C  0.45729366  0.44757950  0.99180618    -0.31000
O762        O  0.46178267  0.32469813  0.04071086    -0.22800
C763        C  0.49295250  0.31600605  0.07467210    -0.02800
C764        C  0.51019383  0.34745934  0.09798247    -0.17200
H765        H  0.53042651  0.42855113  0.10754221     0.20800
H766        H  0.42474661  0.37052076  0.98425823     0.19100
H767        H  0.44996123  0.43958111  0.96352717     0.19100
H768        H  0.54004966  0.34845023  0.12645057     0.15000
C769        C  0.49552952  0.71078274  0.95246977     0.30400
C770        C  0.96000351  0.68993940  0.98106701    -0.35900
C771        C  0.47515005  0.65192470  0.97823587     0.16400
C772        C  0.52465738  0.63442827  0.95060249     0.22200
C773        C  0.55976610  0.65550254  0.92070459    -0.34100
C774        C  0.54271653  0.69449764  0.92287021     0.16300
O775        O  0.49391383  0.74711025  0.95160646    -0.26100
C776        C  0.53946955  0.75533833  0.92074420     0.06100
C777        C  0.57105724  0.72373428  0.90124346    -0.31000
O778        O  0.53312013  0.59797659  0.95671866    -0.22800
C779        C  0.48214668  0.59156374  0.98790710    -0.02800
C780        C  0.95086628  0.62596897  0.00177023    -0.17200
H781        H  0.92676490  0.70281590  0.00487713     0.20800
H782        H  0.59724019  0.64275477  0.89771373     0.19100
H783        H  0.61266386  0.72264208  0.87588774     0.19100
H784        H  0.91752548  0.63320290  0.02703779     0.15000
C785        C  0.69765399  0.41929083  0.97469048     0.30400
C786        C  0.68065392  0.38178256  0.98204163    -0.35900
C787        C  0.71680153  0.35645326  0.95648909     0.16400
C788        C  0.76942510  0.36702428  0.92583725     0.22200
C789        C  0.78883220  0.40514122  0.91892249    -0.34100
C790        C  0.75025106  0.43070043  0.94485682     0.16300
O791        O  0.67492759  0.44684343  0.99656081    -0.26100
C792        C  0.71572517  0.47799341  0.98284932     0.06100
C793        C  0.76757730  0.46841877  0.95061671    -0.31000
O794        O  0.80543585  0.33797329  0.90763716    -0.22800
C795        C  0.77516594  0.30890427  0.92733447    -0.02800
C796        C  0.72000085  0.31899989  0.95796195    -0.17200
H797        H  0.64953667  0.37283884  0.00755199     0.20800
H798        H  0.83516710  0.41413654  0.89618482     0.19100
H799        H  0.81950943  0.48502092  0.93463981     0.19100
H800        H  0.68931850  0.30142097  0.97900469     0.15000
C801        C  0.72851904  0.46748697  0.15981914     0.30400
C802        C  0.75037129  0.45481700  0.12437777    -0.35900
C803        C  0.73029451  0.47986508  0.09599958     0.16400
C804        C  0.68848069  0.51411991  0.10128505     0.22200
C805        C  0.67474618  0.52779009  0.13716005    -0.34100
C806        C  0.69334905  0.50297396  0.16585209     0.16300
O807        O  0.74655589  0.44953547  0.19055180    -0.26100
C808        C  0.72295087  0.47386415  0.21678223     0.06100
C809        C  0.68949337  0.50768098  0.20300027    -0.31000
O810        O  0.66952561  0.53163041  0.07001334    -0.22800
C811        C  0.70491413  0.50949077  0.04367229    -0.02800
C812        C  0.74736927  0.47721657  0.05988288    -0.17200
H813        H  0.78289028  0.42767834  0.11934232     0.20800
H814        H  0.65614503  0.55629688  0.14269175     0.19100
H815        H  0.66767176  0.53231087  0.21813661     0.19100
H816        H  0.78376884  0.45362245  0.04779374     0.15000
C817        C  0.71458690  0.64481434  0.01534708     0.30400
C818        C  0.70795274  0.68165601  0.00502382    -0.35900
C819        C  0.71465808  0.70819979  0.03320862     0.16400
C820        C  0.73168820  0.69953969  0.06956149     0.22200
C821        C  0.74449740  0.66226128  0.07992120    -0.34100
C822        C  0.73540742  0.63540479  0.05101039     0.16300
O823        O  0.71941840  0.61667883  0.99231878    -0.26100
C824        C  0.74770928  0.58733550  0.01183036     0.06100
C825        C  0.75570501  0.59810643  0.04948333    -0.31000
O826        O  0.73990935  0.72973206  0.09105777    -0.22800
C827        C  0.72802100  0.75750416  0.06765325    -0.02800
C828        C  0.71263577  0.74556523  0.03137426    -0.17200
H829        H  0.70394763  0.68928197  0.97659131     0.20800
H830        H  0.76356944  0.65488554  0.10806456     0.19100
H831        H  0.78304704  0.58314839  0.07294986     0.19100
H832        H  0.70249314  0.76198354  0.00702338     0.15000
C833        C  0.73329034  0.58413313  0.82755522     0.30400
C834        C  0.70672245  0.55650188  0.85219843    -0.35900
C835        C  0.73141457  0.56499593  0.88950973     0.16400
C836        C  0.78070038  0.59751036  0.90210844     0.22200
C837        C  0.80604890  0.62587656  0.87755711    -0.34100
C838        C  0.77994538  0.61781698  0.83993867     0.16300
O839        O  0.72305514  0.58100492  0.79139285    -0.26100
C840        C  0.76178172  0.61345221  0.78007246     0.06100
C841        C  0.79793867  0.63755374  0.80913080    -0.31000
O842        O  0.80681231  0.59680402  0.93784572    -0.22800
C843        C  0.77350916  0.56310647  0.94946942    -0.02800
C844        C  0.72431791  0.54342191  0.91912545    -0.17200
H845        H  0.67551487  0.52935256  0.84277261     0.20800
H846        H  0.84541065  0.65195268  0.88692407     0.19100
H847        H  0.83516571  0.66511562  0.80770300     0.19100
H848        H  0.69110137  0.51680112  0.91607958     0.15000
C849        C  0.96737034  0.49689135  0.82485012     0.30400
C850        C  0.95225913  0.52337249  0.85235923    -0.35900
C851        C  0.47731598  0.51250851  0.88821788     0.16400
C852        C  0.51831040  0.47899293  0.89680095     0.22200
C853        C  0.53417659  0.45197442  0.86933115    -0.34100
C854        C  0.50562483  0.46223785  0.83315217     0.16300
O855        O  0.95269922  0.50193029  0.78938304    -0.26100
C856        C  0.47995757  0.46981482  0.77455455     0.06100
C857        C  0.51320252  0.44394378  0.80038160    -0.31000
O858        O  0.54604423  0.47728601  0.93216171    -0.22800
C859        C  0.51840420  0.50957426  0.94782401    -0.02800
C860        C  0.47652568  0.53206046  0.91999117    -0.17200
H861        H  0.92840250  0.55124021  0.84612634     0.20800
H862        H  0.56816142  0.42532318  0.87559617     0.19100
H863        H  0.54194655  0.41621877  0.79561206     0.19100
H864        H  0.94906896  0.55922202  0.91952091     0.15000
C865        C  0.62023898  0.21176011  0.57039567     0.30400
C866        C  0.60006506  0.17386063  0.57710098    -0.35900
C867        C  0.63951244  0.14868057  0.55133626     0.16400
C868        C  0.69417482  0.16017897  0.52191414     0.22200
C869        C  0.71630151  0.19755677  0.51553072    -0.34100
C870        C  0.67754946  0.22265738  0.54073587     0.16300
O871        O  0.57685811  0.24019707  0.58695706    -0.26100
C872        C  0.60659721  0.26913801  0.56725429     0.06100
C873        C  0.67003909  0.25989415  0.53843537    -0.31000
O874        O  0.71830872  0.13257725  0.50043337    -0.22800
C875        C  0.67503027  0.10153369  0.51366165    -0.02800
C876        C  0.62244206  0.11105218  0.54563764    -0.17200
H877        H  0.05059805  0.16481597  0.59905517     0.20800
H878        H  0.75184650  0.20660602  0.49074802     0.19100
H879        H  0.70018472  0.27761145  0.51740779     0.19100
H880        H  0.57106625  0.09457371  0.56173018     0.15000
C881        C  0.97973512  0.59685825  0.16452947     0.30400
C882        C  0.00830532  0.60919202  0.13032287    -0.35900
C883        C  0.99077041  0.58348975  0.10109545     0.16400
C884        C  0.94514347  0.54875397  0.10390412     0.22200
C885        C  0.92684524  0.53505894  0.13907635    -0.34100
C886        C  0.94342114  0.56070032  0.16903020     0.16300
O887        O  0.98638211  0.61683777  0.19526450    -0.26100
C888        C  0.95506818  0.59328353  0.22038743     0.06100
C889        C  0.92940227  0.55762149  0.20584583    -0.31000
O890        O  0.92359309  0.53206437  0.07103767    -0.22800
C891        C  0.95944838  0.55622925  0.04653773    -0.02800
C892        C  0.00916193  0.58711094  0.06574251    -0.17200
H893        H  0.04070598  0.63709597  0.12657965     0.20800
H894        H  0.90464263  0.50641696  0.14302686     0.19100
H895        H  0.90312281  0.53331069  0.22024729     0.19100
H896        H  0.05087781  0.61092743  0.05647871     0.15000
C897        C  0.12965903  0.87858016  0.42504557     0.30400
C898        C  0.11972255  0.91625640  0.41565562    -0.35900
C899        C  0.14018280  0.94287670  0.44454365     0.16400
C900        C  0.66535392  0.93312895  0.47974117     0.22200
C901        C  0.67441352  0.89582918  0.48909888    -0.34100
C902        C  0.65829832  0.86934002  0.46058479     0.16300
O903        O  0.10291750  0.84877193  0.40392776    -0.26100
C904        C  0.11504297  0.82031017  0.42654478     0.06100
C905        C  0.64991389  0.83172256  0.46202738    -0.31000
O906        O  0.66342139  0.96134447  0.50326047    -0.22800
C907        C  0.63626267  0.99120418  0.48408125    -0.02800
C908        C  0.12372646  0.98018930  0.44653447    -0.17200
H909        H  0.09230002  0.92417588  0.38833170     0.20800
H910        H  0.68232849  0.88771095  0.51731879     0.19100
H911        H  0.66131898  0.81495820  0.48607883     0.19100
H912        H  0.09576798  0.99505202  0.42314646     0.15000
loop_ 
_geom_bond_atom_site_label_1 
_geom_bond_atom_site_label_2 
_geom_bond_distance 
_geom_bond_site_symmetry_2 
_ccdc_geom_bond_type 
N1            N2   1.323       .  A
N1            C5   1.353       .  A
N1           Cu9   2.098       .  S
N2            C3   1.344       .  A
N2           Cu8   2.082       .  S
C3            C4   1.386       .  A
C3            H6   1.082       .  S
C4            C5   1.389       .  A
C4          C448   1.485       .  S
C5            H7   1.082       .  S
Cu8          N11   2.081       .  S
Cu9          N19   2.099       .  S
Cu10         N12   2.079       .  S
Cu10         N18   2.079       .  S
N11          N12   1.322       .  A
N11          C15   1.347       .  A
N12          C13   1.344       .  A
C13          C14   1.383       .  A
C13          H16   1.082       .  S
C14          C15   1.384       .  A
C14          C38   1.478       .  S
C15          H17   1.082       .  S
N18          N19   1.324       .  A
N18          C22   1.350       .  A
N19          C20   1.346       .  A
C20          C21   1.385       .  A
C20          H23   1.082       .  S
C21          C22   1.384       .  A
C21         C432   1.478       .  S
C22          H24   1.082       .  S
N25          N26   1.319       .  A
N25         C485   1.341       .  A
N25         Cu33   2.037       .  S
N26          C27   1.342       .  A
N26         Cu32   2.066       .  S
C27         C484   1.385       .  A
C27          H30   1.082       .  S
C28          C29   1.375       .  A
C28         C483   1.385       .  A
C28         C416   1.459       .  S
C29         N481   1.341       .  A
C29          H31   1.082       .  S
Cu32         N35   2.068       .  S
Cu33         N43   2.039       .  S
Cu34         N36   2.094       .  S
Cu34         N42   2.094       .  S
N35          N36   1.324       .  A
N35          C39   1.343       .  A
N36          C37   1.348       .  A
C37          C38   1.387       .  A
C37          H40   1.082       .  S
C38          C39   1.380       .  A
C39          H41   1.082       .  S
N42          N43   1.322       .  A
N42          C46   1.348       .  A
N43          C44   1.340       .  A
C44          C45   1.374       .  A
C44         H503   1.082       .  S
C45          C46   1.387       .  A
C45         C856   1.464       .  S
C46          H48   1.082       .  S
H47         C500   1.082       .  S
C49          C50   1.795   1_556  S
C49          C51   1.872   1_556  S
C49         C368   1.589   1_556  S
C49         C387   1.610       .  S
C50          C52   1.858   1_554  S
C50         C336   1.595   1_554  S
C50         C355   1.589       .  S
C51         C508   1.794   1_554  S
C51         C435   1.591       .  S
C51         C779   1.618   1_554  S
C52         C507   1.794   1_456  S
C52         C304   1.608   1_456  S
C52         C403   1.590       .  S
N53          N54   1.323       .  A
N53          C57   1.347       .  A
N53         Cu61   2.066       .  S
N54          C55   1.346       .  A
N54         Cu60   2.098       .  S
C55          C56   1.388       .  A
C55          H58   1.082       .  S
C56          C57   1.380       .  A
C56         C288   1.473       .  S
C57          H59   1.082       .  S
Cu60         N63   2.098       .  S
Cu61         N71   2.068       .  S
Cu62         N64   2.101       .  S
Cu62         N70   2.101       .  S
N63          N64   1.324       .  A
N63          C67   1.350       .  A
N64          C65   1.348       .  A
C65          C66   1.387       .  A
C65          H68   1.082       .  S
C66          C67   1.387       .  A
C66          C90   1.490       .  S
C67          H69   1.082       .  S
N70          N71   1.323       .  A
N70          C74   1.351       .  A
N71          C72   1.344       .  A
C72          C73   1.381       .  A
C72          H75   1.082       .  S
C73          C74   1.390       .  A
C73         C352   1.479       .  S
C74          H76   1.082       .  S
N77          N78   1.323       .  A
N77          C81   1.349       .  A
N77         Cu85   2.079       .  S
N78          C79   1.344       .  A
N78         Cu84   2.083       .  S
C79          C80   1.385       .  A
C79          H82   1.082       .  S
C80          C81   1.383       .  A
C80         C272   1.475       .  S
C81          H83   1.082       .  S
Cu84         N87   2.084       .  S
Cu85         N95   2.080       .  S
Cu86         N88   2.109       .  S
Cu86         N94   2.110       .  S
N87          N88   1.323       .  A
N87          C91   1.347       .  A
N88          C89   1.351       .  A
C89          C90   1.390       .  A
C89          H92   1.082       .  S
C90          C91   1.385       .  A
C91          H93   1.082       .  S
N94          N95   1.324       .  A
N94          C98   1.351       .  A
N95          C96   1.347       .  A
C96          C97   1.383       .  A
C96          H99   1.082       .  S
C97          C98   1.390       .  A
C97         C384   1.483       .  S
C98         H100   1.082       .  S
N101        N102   1.320       .  A
N101        C105   1.346       .  A
N101       Cu109   2.056       .  S
N102        C103   1.341       .  A
N102       Cu108   2.072       .  S
C103        C104   1.385       .  A
C103        H106   1.082       .  S
C104        C105   1.380       .  A
C104        C371   1.468       .  S
C105        H107   1.082       .  S
Cu108       N111   2.072       .  S
Cu109       N119   2.057       .  S
Cu110       N112   2.084       .  S
Cu110       N118   2.084       .  S
N111        N112   1.322       .  A
N111        C115   1.344       .  A
N112        C113   1.347   1_565  A
C113        C114   1.386       .  A
C113        H116   1.082       .  S
C114        C115   1.382   1_545  A
C114        C138   1.477   1_554  S
C115        H117   1.082   1_554  S
N118        N119   1.323       .  A
N118        C122   1.347       .  A
N119        C120   1.340       .  A
C120        C121   1.378       .  A
C120        H123   1.082       .  S
C121        C122   1.384       .  A
C121        C256   1.466       .  S
C122        H124   1.082   1_565  S
N125        N126   1.321       .  A
N125        C129   1.349       .  A
N125       Cu133   2.072       .  S
N126        C127   1.343       .  A
N126       Cu132   2.078       .  S
C127        C128   1.387       .  A
C127        H130   1.082       .  S
C128        C129   1.384       .  A
C128        C339   1.476       .  S
C129        H131   1.082       .  S
Cu132       N135   2.078       .  S
Cu133       N143   2.074       .  S
Cu134       N136   2.082       .  S
Cu134       N142   2.081       .  S
N135        N136   1.323       .  A
N135        C139   1.345       .  A
N136        C137   1.346       .  A
C137        C138   1.384       .  A
C137        H140   1.082       .  S
C138        C139   1.383       .  A
C139        H141   1.082   1_556  S
N142        N143   1.324       .  A
N142        C146   1.351       .  A
N143        C144   1.340       .  A
C144        C145   1.379       .  A
C144        H147   1.082       .  S
C145        C146   1.385       .  A
C145        C243   1.469       .  S
C146        H148   1.082       .  S
C149        C150   1.781       .  S
C149        C607   1.869       .  S
C149        C259   1.574       .  S
C149        C275   1.598   1_545  S
C150        C152   1.862       .  S
C150        C240   1.598       .  S
C150        C291   1.615       .  S
C151        C152   1.811       .  S
C151        C605   1.869   1_455  S
C151        C227   1.600       .  S
C151        C451   1.604   1_545  S
C152        C211   1.588       .  S
C152        C419   1.587       .  S
N153        N154   1.323       .  A
N153        C157   1.351       .  A
N153       Cu161   2.084       .  S
N154        C155   1.348       .  A
N154       Cu160   2.106       .  S
C155        C156   1.390       .  A
C155        H158   1.082       .  S
C156        C157   1.385       .  A
C156        C307   1.484   1_455  S
C157        H159   1.082       .  S
Cu160       N163   2.105       .  S
Cu161       N171   2.085       .  S
Cu162       N164   2.094       .  S
Cu162       N170   2.094       .  S
N163        N164   1.324       .  A
N163        C167   1.350       .  A
N164        C165   1.349       .  A
C165        C166   1.386       .  A
C165        H168   1.082       .  S
C166        C167   1.389       .  A
C166        C190   1.490   1_554  S
C167        H169   1.082   1_554  S
N170        N171   1.324       .  A
N170        C174   1.352       .  A
N171        C172   1.344       .  A
C172        C173   1.383       .  A
C172        H175   1.082       .  S
C173        C174   1.388       .  A
C173        C208   1.479       .  S
C174        H176   1.082       .  S
N177        N178   1.322       .  A
N177        C181   1.349       .  A
N177       Cu185   2.061       .  S
N178        C179   1.345       .  A
N178       Cu184   2.098       .  S
C179        C180   1.388       .  A
C179        H182   1.082       .  S
C180        C181   1.381       .  A
C180        C320   1.475       .  S
C181        H183   1.082       .  S
Cu184       N187   2.098       .  S
Cu185       N195   2.062       .  S
Cu186       N188   2.103       .  S
Cu186       N194   2.103       .  S
N187        N188   1.324       .  A
N187        C191   1.349       .  A
N188        C189   1.350   1_565  A
C189        C190   1.389       .  A
C189        H192   1.082       .  S
C190        C191   1.387   1_545  A
C191        H193   1.082   1_556  S
N194        N195   1.324       .  A
N194        C198   1.351       .  A
N195        C196   1.343       .  A
C196        C197   1.378       .  A
C196        H199   1.082       .  S
C197        C198   1.389       .  A
C197        C224   1.474       .  S
C198        H200   1.082   1_565  S
C201        C206   1.378       .  A
C201        C202   1.400       .  A
C201        O207   1.317       .  A
C202        C203   1.401       .  A
C202        H213   1.083       .  S
C203        C212   1.348       .  A
C203        C204   1.365       .  A
C204        C205   1.409       .  A
C204        O210   1.331       .  A
C205        C206   1.409       .  A
C205        H214   1.077       .  S
C206        C209   1.369       .  A
O207        C208   1.330       .  A
C208        C209   1.396       .  A
C209        H215   1.082       .  S
O210        C211   1.334       .  A
C211        C212   1.423       .  A
C212        H216   1.072       .  S
C217        C222   1.380       .  A
C217        C218   1.396   1_565  A
C217        O223   1.318   1_565  A
C218        C219   1.399       .  A
C218        H229   1.079       .  S
C219        C228   1.345       .  A
C219        C220   1.358   1_545  A
C220        C221   1.410       .  A
C220        O226   1.322       .  A
C221        C222   1.412       .  A
C221        H230   1.081       .  S
C222        C225   1.364       .  A
O223        C224   1.328   1_545  A
C224        C225   1.396       .  A
C225        H231   1.082       .  S
O226        C227   1.348   1_565  A
C227        C228   1.396       .  A
C228        H232   1.035       .  S
C233        C238   1.358       .  A
C233        C234   1.411       .  A
C233        O239   1.328       .  A
C234        C235   1.412       .  A
C234        H245   1.078       .  S
C235        C244   1.371       .  A
C235        C236   1.379       .  A
C236        C237   1.392       .  A
C236        O242   1.310       .  A
C237        C238   1.394       .  A
C237        H246   1.083       .  S
C238        C241   1.336       .  A
O239        C240   1.339       .  A
C240        C241   1.409       .  A
C241        H247   1.056       .  S
O242        C243   1.326       .  A
C243        C244   1.396       .  A
C244        H248   1.082       .  S
C249        C254   1.381   1_545  A
C249        C250   1.398       .  A
C249        O255   1.317       .  A
C250        C251   1.399       .  A
C250        H261   1.079       .  S
C251        C260   1.350       .  A
C251        C252   1.364   1_545  A
C252        C253   1.402       .  A
C252        O258   1.315       .  A
C253        C254   1.403       .  A
C253        H262   1.081       .  S
C254        C257   1.357       .  A
O255        C256   1.328   1_545  A
C256        C257   1.392       .  A
C257        H263   1.082       .  S
O258        C259   1.345   1_565  A
C259        C260   1.389       .  A
C260        H264   1.043       .  S
C265        C270   1.379       .  A
C265        C266   1.413       .  A
C265        O271   1.324       .  A
C266        C267   1.412       .  A
C266        H277   1.082       .  S
C267        C276   1.367       .  A
C267        C268   1.363       .  A
C268        C269   1.396       .  A
C268        O274   1.309       .  A
C269        C270   1.393       .  A
C269        H278   1.078       .  S
C270        C273   1.354       .  A
O271        C272   1.336       .  A
C272        C273   1.387       .  A
C273        H279   1.083       .  S
O274        C275   1.338       .  A
C275        C276   1.414       .  A
C276        H280   1.057       .  S
C281        C286   1.379       .  A
C281        C282   1.384       .  A
C281        O287   1.312       .  A
C282        C283   1.391       .  A
C282        H293   1.077       .  S
C283        C292   1.331       .  A
C283        C284   1.353       .  A
C284        C285   1.417       .  A
C284        O290   1.331       .  A
C285        C286   1.419       .  A
C285        H294   1.080       .  S
C286        C289   1.372       .  A
O287        C288   1.322       .  A
C288        C289   1.401       .  A
C289        H295   1.082       .  S
O290        C291   1.348       .  A
C291        C292   1.396       .  A
C292        H296   1.045       .  S
C297        C302   1.360       .  A
C297        C298   1.420   1_655  A
C297        O303   1.337   1_655  A
C298        C299   1.424   1_455  A
C298        H309   1.081       .  S
C299        C308   1.378   1_655  A
C299        C300   1.379       .  A
C300        C301   1.387       .  A
C300        O306   1.315       .  A
C301        C302   1.394       .  A
C301        H310   1.079   1_554  S
C302        C305   1.336   1_554  A
O303        C304   1.351   1_455  A
C304        C305   1.404   1_554  A
C305        H311   1.063       .  S
O306        C307   1.325       .  A
C307        C308   1.403   1_655  A
C308        H312   1.082       .  S
C313        C318   1.381   1_655  A
C313        C770   1.382       .  A
C313        O319   1.309       .  A
C314        C769   1.382       .  A
C314        C771   1.389       .  A
C314        H325   1.081   1_556  S
C315        C316   1.358   1_655  A
C315        C770   1.389       .  A
C315        C780   1.322   1_556  A
C316        C317   1.422       .  A
C316        O322   1.342       .  A
C317        C318   1.427       .  A
C317        H326   1.079       .  S
C318        C321   1.378       .  A
O319        C320   1.321   1_655  A
C320        C321   1.404       .  A
C321        H327   1.082       .  S
O322        C323   1.350   1_455  A
C323        C780   1.400   1_556  A
C323        C507   1.618   1_556  S
C324        C771   1.322   1_554  A
C324        C779   1.400   1_554  A
C324        H328   1.060       .  S
C329        C334   1.361       .  A
C329        C330   1.394       .  A
C329        O335   1.305       .  A
C330        C331   1.389       .  A
C330        H341   1.078   1_556  S
C331        C340   1.352       .  A
C331        C332   1.378       .  A
C332        C333   1.416       .  A
C332        O338   1.326       .  A
C333        C334   1.415       .  A
C333        H342   1.082       .  S
C334        C337   1.377       .  A
O335        C336   1.333       .  A
C336        C337   1.409       .  A
C337        H343   1.066       .  S
O338        C339   1.338       .  A
C339        C340   1.386       .  A
C340        H344   1.082       .  S
C345        C350   1.378       .  A
C345        C346   1.405       .  A
C345        O351   1.319       .  A
C346        C347   1.406       .  A
C346        H357   1.082       .  S
C347        C356   1.348       .  A
C347        C348   1.364       .  A
C348        C349   1.409       .  A
C348        O354   1.330       .  A
C349        C350   1.406       .  A
C349        H358   1.075       .  S
C350        C353   1.366       .  A
O351        C352   1.332       .  A
C352        C353   1.393       .  A
C353        H359   1.082       .  S
O354        C355   1.334       .  A
C355        C356   1.417       .  A
C356        H360   1.069       .  S
C361        C366   1.365       .  A
C361        C362   1.391       .  A
C361        O367   1.306   1_554  A
C362        C363   1.385       .  A
C362        H373   1.079   1_554  S
C363        C372   1.349       .  A
C363        C364   1.377       .  A
C364        C365   1.414       .  A
C364        O370   1.323       .  A
C365        C366   1.412       .  A
C365        H374   1.082       .  S
C366        C369   1.373       .  A
O367        C368   1.332   1_556  A
C368        C369   1.417       .  A
C369        H375   1.067       .  S
O370        C371   1.336       .  A
C371        C372   1.384       .  A
C372        H376   1.083       .  S
C377        C382   1.379       .  A
C377        C378   1.399       .  A
C377        O383   1.321       .  A
C378        C379   1.403       .  A
C378        H389   1.079       .  S
C379        C388   1.351       .  A
C379        C380   1.358       .  A
C380        C381   1.413       .  A
C380        O386   1.327       .  A
C381        C382   1.414       .  A
C381        H390   1.081       .  S
C382        C385   1.369       .  A
O383        C384   1.330       .  A
C384        C385   1.398       .  A
C385        H391   1.082       .  S
O386        C387   1.353       .  A
C387        C388   1.398       .  A
C388        H392   1.030       .  S
C393        C394   1.392       .  A
C393        C854   1.381       .  A
C393        O399   1.315       .  A
C394        C851   1.396       .  A
C394        H405   1.080       .  S
C395        C404   1.343       .  A
C395        C396   1.358   1_655  A
C395        C850   1.396       .  A
C396        C397   1.406       .  A
C396        O402   1.320       .  A
C397        C398   1.408       .  A
C397        H406   1.082       .  S
C398        C401   1.361       .  A
C398        C849   1.381   1_455  A
O399        C856   1.325       .  A
C400        C401   1.395   1_655  A
C400        C501   1.464       .  S
C400        O855   1.325       .  A
C401        H407   1.082       .  S
O402        C403   1.345       .  A
C403        C404   1.399   1_455  A
C404        H864   1.044       .  S
H408        C860   1.044       .  S
C409        C414   1.381       .  A
C409        C410   1.408       .  A
C409        O415   1.318       .  A
C410        C411   1.407       .  A
C410        H877   1.082       .  S
C411        C420   1.373       .  A
C411        C412   1.363       .  A
C412        C413   1.391       .  A
C412        O418   1.303       .  A
C413        C414   1.388       .  A
C413        H422   1.079       .  S
C414        C417   1.351       .  A
O415        C416   1.332       .  A
C416        C417   1.383       .  A
C417        H423   1.083       .  S
O418        C419   1.334       .  A
C419        C420   1.405       .  A
C420        H424   1.062       .  S
H421        C866   1.082       .  S
C425        C430   1.378       .  A
C425        C426   1.394       .  A
C425        O431   1.316       .  A
C426        C427   1.399       .  A
C426        H437   1.083       .  S
C427        C436   1.331       .  A
C427        C428   1.362       .  A
C428        C429   1.413       .  A
C428        O434   1.338       .  A
C429        C430   1.416       .  A
C429        H438   1.073       .  S
C430        C433   1.371       .  A
O431        C432   1.327       .  A
C432        C433   1.397       .  A
C433        H439   1.081       .  S
O434        C435   1.344       .  A
C435        C436   1.404       .  A
C436        H440   1.056       .  S
C441        C442   1.414       .  A
C441        C902   1.376       .  A
C441        O447   1.328       .  A
C442        C443   1.414       .  A
C442        H453   1.082       .  S
C443        C452   1.365       .  A
C443        C900   1.361       .  A
C444        C445   1.399       .  A
C444        C899   1.361       .  A
C444        O450   1.316       .  A
C445        C446   1.396       .  A
C445        H454   1.078       .  S
C446        C449   1.357       .  A
C446        C897   1.376       .  A
O447        C448   1.338       .  A
C448        C905   1.390       .  A
C449        C904   1.390       .  A
C449        H455   1.082       .  S
O450        C451   1.337       .  A
C451        C908   1.417       .  A
C452        C907   1.417       .  A
C452        H456   1.065       .  S
N457        N458   1.323       .  A
N457        C461   1.353       .  A
N457       Cu465   2.098   1_455  S
N458        C459   1.344       .  A
N458       Cu464   2.082       .  S
C459        C460   1.386       .  A
C459        H462   1.082       .  S
C460        C461   1.389       .  A
C460        C904   1.485       .  S
C461        H463   1.082       .  S
Cu464       N467   2.081       .  S
Cu465       N475   2.099       .  S
Cu466       N468   2.079   1_655  S
Cu466       N474   2.079       .  S
N467        N468   1.322       .  A
N467        C471   1.347       .  A
N468        C469   1.344       .  A
C469        C470   1.383       .  A
C469        H472   1.082   1_455  S
C470        C471   1.384       .  A
C470        C494   1.478       .  S
C471        H473   1.082       .  S
N474        N475   1.324       .  A
N474        C478   1.350       .  A
N475        C476   1.346       .  A
C476        C477   1.385       .  A
C476        H479   1.082       .  S
C477        C478   1.384       .  A
C477        C888   1.478       .  S
C478        H480   1.082       .  S
N481        N482   1.319       .  A
N481       Cu489   2.037   1_455  S
N482        C483   1.342       .  A
N482       Cu488   2.066       .  S
C483        H486   1.082       .  S
C484        C485   1.375       .  A
C484        C872   1.459       .  S
C485        H487   1.082       .  S
Cu488       N491   2.068       .  S
Cu489       N499   2.039       .  S
Cu490       N492   2.094       .  S
Cu490       N498   2.094   1_455  S
N491        N492   1.324       .  A
N491        C495   1.343       .  A
N492        C493   1.348       .  A
C493        C494   1.387       .  A
C493        H496   1.082       .  S
C494        C495   1.380       .  A
C495        H497   1.082       .  S
N498        N499   1.322       .  A
N498        C502   1.348       .  A
N499        C500   1.340       .  A
C500        C501   1.374       .  A
C501        C502   1.387       .  A
C502        H504   1.082       .  S
C505        C506   1.795   1_556  S
C505        C507   1.872   1_556  S
C505        C824   1.589   1_556  S
C505        C843   1.610       .  S
C506        C508   1.858   1_554  S
C506        C792   1.595   1_554  S
C506        C811   1.589       .  S
C507        C891   1.591       .  S
C508        C760   1.608   1_556  S
C508        C859   1.590       .  S
N509        N510   1.323       .  A
N509        C513   1.347       .  A
N509       Cu517   2.066       .  S
N510        C511   1.346       .  A
N510       Cu516   2.098       .  S
C511        C512   1.388       .  A
C511        H514   1.082       .  S
C512        C513   1.380       .  A
C512        C744   1.473       .  S
C513        H515   1.082       .  S
Cu516       N519   2.098       .  S
Cu517       N527   2.068       .  S
Cu518       N520   2.101       .  S
Cu518       N526   2.101       .  S
N519        N520   1.324       .  A
N519        C523   1.350       .  A
N520        C521   1.348       .  A
C521        C522   1.387       .  A
C521        H524   1.082       .  S
C522        C523   1.387       .  A
C522        C546   1.490       .  S
C523        H525   1.082       .  S
N526        N527   1.323       .  A
N526        C530   1.351       .  A
N527        C528   1.344       .  A
C528        C529   1.381       .  A
C528        H531   1.082       .  S
C529        C530   1.390       .  A
C529        C808   1.479       .  S
C530        H532   1.082       .  S
N533        N534   1.323       .  A
N533        C537   1.349       .  A
N533       Cu541   2.079       .  S
N534        C535   1.344       .  A
N534       Cu540   2.083       .  S
C535        C536   1.385       .  A
C535        H538   1.082       .  S
C536        C537   1.383       .  A
C536        C728   1.475       .  S
C537        H539   1.082       .  S
Cu540       N543   2.084       .  S
Cu541       N551   2.080       .  S
Cu542       N544   2.109       .  S
Cu542       N550   2.110       .  S
N543        N544   1.323       .  A
N543        C547   1.347       .  A
N544        C545   1.351       .  A
C545        C546   1.390       .  A
C545        H548   1.082       .  S
C546        C547   1.385       .  A
C547        H549   1.082       .  S
N550        N551   1.324       .  A
N550        C554   1.351       .  A
N551        C552   1.347       .  A
C552        C553   1.383       .  A
C552        H555   1.082       .  S
C553        C554   1.390       .  A
C553        C840   1.483       .  S
C554        H556   1.082       .  S
N557        N558   1.320       .  A
N557        C561   1.346       .  A
N557       Cu565   2.056       .  S
N558        C559   1.341       .  A
N558       Cu564   2.072       .  S
C559        C560   1.385       .  A
C559        H562   1.082       .  S
C560        C561   1.380       .  A
C560        C827   1.468       .  S
C561        H563   1.082       .  S
Cu564       N567   2.072       .  S
Cu565       N575   2.057       .  S
Cu566       N568   2.084       .  S
Cu566       N574   2.084       .  S
N567        N568   1.322       .  A
N567        C571   1.344       .  A
N568        C569   1.347   1_565  A
C569        C570   1.386       .  A
C569        H572   1.082       .  S
C570        C571   1.382   1_545  A
C570        C594   1.477   1_554  S
C571        H573   1.082   1_554  S
N574        N575   1.323       .  A
N574        C578   1.347       .  A
N575        C576   1.340       .  A
C576        C577   1.378       .  A
C576        H579   1.082       .  S
C577        C578   1.384       .  A
C577        C712   1.466       .  S
C578        H580   1.082   1_565  S
N581        N582   1.321       .  A
N581        C585   1.349       .  A
N581       Cu589   2.072       .  S
N582        C583   1.343       .  A
N582       Cu588   2.078       .  S
C583        C584   1.387       .  A
C583        H586   1.082       .  S
C584        C585   1.384       .  A
C584        C795   1.477       .  S
C585        H587   1.082       .  S
Cu588       N591   2.078       .  S
Cu589       N599   2.074       .  S
Cu590       N592   2.082       .  S
Cu590       N598   2.081       .  S
N591        N592   1.323       .  A
N591        C595   1.345       .  A
N592        C593   1.346       .  A
C593        C594   1.384       .  A
C593        H596   1.082       .  S
C594        C595   1.383       .  A
C595        H597   1.082   1_556  S
N598        N599   1.324       .  A
N598        C602   1.351       .  A
N599        C600   1.340       .  A
C600        C601   1.379       .  A
C600        H603   1.082       .  S
C601        C602   1.385       .  A
C601        C699   1.469       .  S
C602        H604   1.082       .  S
C605        C606   1.781       .  S
C605        C715   1.574       .  S
C605        C731   1.598   1_545  S
C606        C608   1.862       .  S
C606        C696   1.598       .  S
C606        C747   1.615       .  S
C607        C608   1.811       .  S
C607        C683   1.600       .  S
C607        C907   1.604   1_545  S
C608        C667   1.588       .  S
C608        C875   1.587       .  S
N609        N610   1.323       .  A
N609        C613   1.351       .  A
N609       Cu617   2.084       .  S
N610        C611   1.348       .  A
N610       Cu616   2.106       .  S
C611        C612   1.390       .  A
C611        H614   1.082       .  S
C612        C613   1.385       .  A
C612        C763   1.484       .  S
C613        H615   1.082       .  S
Cu616       N619   2.105       .  S
Cu617       N627   2.085       .  S
Cu618       N620   2.094       .  S
Cu618       N626   2.094       .  S
N619        N620   1.324       .  A
N619        C623   1.350       .  A
N620        C621   1.349       .  A
C621        C622   1.386       .  A
C621        H624   1.082       .  S
C622        C623   1.389       .  A
C622        C646   1.490   1_554  S
C623        H625   1.082   1_554  S
N626        N627   1.324       .  A
N626        C630   1.352       .  A
N627        C628   1.344       .  A
C628        C629   1.383       .  A
C628        H631   1.082       .  S
C629        C630   1.388       .  A
C629        C664   1.479       .  S
C630        H632   1.082       .  S
N633        N634   1.322       .  A
N633        C637   1.349       .  A
N633       Cu641   2.061       .  S
N634        C635   1.345       .  A
N634       Cu640   2.098       .  S
C635        C636   1.388       .  A
C635        H638   1.082       .  S
C636        C637   1.381       .  A
C636        C776   1.475       .  S
C637        H639   1.082       .  S
Cu640       N643   2.098       .  S
Cu641       N651   2.062       .  S
Cu642       N644   2.103       .  S
Cu642       N650   2.103       .  S
N643        N644   1.324       .  A
N643        C647   1.349       .  A
N644        C645   1.350   1_565  A
C645        C646   1.389       .  A
C645        H648   1.082       .  S
C646        C647   1.387   1_545  A
C647        H649   1.082   1_556  S
N650        N651   1.324       .  A
N650        C654   1.351       .  A
N651        C652   1.343       .  A
C652        C653   1.378       .  A
C652        H655   1.082       .  S
C653        C654   1.389       .  A
C653        C680   1.474       .  S
C654        H656   1.082   1_565  S
C657        C662   1.378       .  A
C657        C658   1.400       .  A
C657        O663   1.317       .  A
C658        C659   1.401       .  A
C658        H669   1.083       .  S
C659        C668   1.348       .  A
C659        C660   1.365       .  A
C660        C661   1.409       .  A
C660        O666   1.331       .  A
C661        C662   1.409       .  A
C661        H670   1.077       .  S
C662        C665   1.369       .  A
O663        C664   1.330       .  A
C664        C665   1.396       .  A
C665        H671   1.082       .  S
O666        C667   1.334       .  A
C667        C668   1.423       .  A
C668        H672   1.072       .  S
C673        C678   1.380       .  A
C673        C674   1.396   1_565  A
C673        O679   1.318   1_565  A
C674        C675   1.399       .  A
C674        H685   1.079       .  S
C675        C684   1.345       .  A
C675        C676   1.358   1_545  A
C676        C677   1.410       .  A
C676        O682   1.322       .  A
C677        C678   1.412       .  A
C677        H686   1.081       .  S
C678        C681   1.364       .  A
O679        C680   1.328   1_545  A
C680        C681   1.396       .  A
C681        H687   1.082       .  S
O682        C683   1.348   1_565  A
C683        C684   1.396       .  A
C684        H688   1.035       .  S
C689        C694   1.358       .  A
C689        C690   1.411       .  A
C689        O695   1.328       .  A
C690        C691   1.412       .  A
C690        H701   1.078       .  S
C691        C700   1.371       .  A
C691        C692   1.379       .  A
C692        C693   1.392       .  A
C692        O698   1.310       .  A
C693        C694   1.394       .  A
C693        H702   1.083       .  S
C694        C697   1.336       .  A
O695        C696   1.339       .  A
C696        C697   1.409       .  A
C697        H703   1.056       .  S
O698        C699   1.326       .  A
C699        C700   1.396       .  A
C700        H704   1.082       .  S
C705        C710   1.381   1_545  A
C705        C706   1.398       .  A
C705        O711   1.317       .  A
C706        C707   1.399       .  A
C706        H717   1.079       .  S
C707        C716   1.350       .  A
C707        C708   1.364   1_545  A
C708        C709   1.402       .  A
C708        O714   1.315       .  A
C709        C710   1.403       .  A
C709        H718   1.081       .  S
C710        C713   1.357       .  A
O711        C712   1.328   1_545  A
C712        C713   1.392       .  A
C713        H719   1.082       .  S
O714        C715   1.345   1_565  A
C715        C716   1.389       .  A
C716        H720   1.043       .  S
C721        C726   1.379       .  A
C721        C722   1.413       .  A
C721        O727   1.324       .  A
C722        C723   1.412       .  A
C722        H733   1.082       .  S
C723        C732   1.367       .  A
C723        C724   1.363       .  A
C724        C725   1.396       .  A
C724        O730   1.309       .  A
C725        C726   1.393       .  A
C725        H734   1.078       .  S
C726        C729   1.354       .  A
O727        C728   1.336       .  A
C728        C729   1.387       .  A
C729        H735   1.083       .  S
O730        C731   1.338       .  A
C731        C732   1.414       .  A
C732        H736   1.057       .  S
C737        C742   1.379       .  A
C737        C738   1.384       .  A
C737        O743   1.312       .  A
C738        C739   1.391       .  A
C738        H749   1.077       .  S
C739        C748   1.331       .  A
C739        C740   1.353       .  A
C740        C741   1.417       .  A
C740        O746   1.331       .  A
C741        C742   1.419       .  A
C741        H750   1.080       .  S
C742        C745   1.372       .  A
O743        C744   1.322       .  A
C744        C745   1.401       .  A
C745        H751   1.082       .  S
O746        C747   1.348       .  A
C747        C748   1.396       .  A
C748        H752   1.045       .  S
C753        C758   1.360       .  A
C753        C754   1.420       .  A
C753        O759   1.337       .  A
C754        C755   1.424       .  A
C754        H765   1.081       .  S
C755        C764   1.378       .  A
C755        C756   1.379       .  A
C756        C757   1.387       .  A
C756        O762   1.315       .  A
C757        C758   1.394       .  A
C757        H766   1.079   1_554  S
C758        C761   1.336   1_554  A
O759        C760   1.351       .  A
C760        C761   1.404   1_554  A
C761        H767   1.063       .  S
O762        C763   1.325       .  A
C763        C764   1.403       .  A
C764        H768   1.082       .  S
C769        C774   1.381       .  A
C769        O775   1.309       .  A
C770        H781   1.081   1_556  S
C771        C772   1.358       .  A
C772        C773   1.422       .  A
C772        O778   1.342       .  A
C773        C774   1.427       .  A
C773        H782   1.079       .  S
C774        C777   1.378       .  A
O775        C776   1.321       .  A
C776        C777   1.404       .  A
C777        H783   1.082       .  S
O778        C779   1.350       .  A
C780        H784   1.060       .  S
C785        C790   1.361       .  A
C785        C786   1.394       .  A
C785        O791   1.305       .  A
C786        C787   1.389       .  A
C786        H797   1.078   1_556  S
C787        C796   1.352       .  A
C787        C788   1.378       .  A
C788        C789   1.416       .  A
C788        O794   1.326       .  A
C789        C790   1.415       .  A
C789        H798   1.082       .  S
C790        C793   1.377       .  A
O791        C792   1.333       .  A
C792        C793   1.409       .  A
C793        H799   1.066       .  S
O794        C795   1.338       .  A
C795        C796   1.386       .  A
C796        H800   1.082       .  S
C801        C806   1.378       .  A
C801        C802   1.405       .  A
C801        O807   1.319       .  A
C802        C803   1.406       .  A
C802        H813   1.082       .  S
C803        C812   1.348       .  A
C803        C804   1.364       .  A
C804        C805   1.409       .  A
C804        O810   1.330       .  A
C805        C806   1.406       .  A
C805        H814   1.075       .  S
C806        C809   1.366       .  A
O807        C808   1.332       .  A
C808        C809   1.393       .  A
C809        H815   1.082       .  S
O810        C811   1.334       .  A
C811        C812   1.417       .  A
C812        H816   1.069       .  S
C817        C822   1.365       .  A
C817        C818   1.391       .  A
C817        O823   1.306   1_554  A
C818        C819   1.385       .  A
C818        H829   1.079   1_554  S
C819        C828   1.349       .  A
C819        C820   1.377       .  A
C820        C821   1.414       .  A
C820        O826   1.323       .  A
C821        C822   1.412       .  A
C821        H830   1.082       .  S
C822        C825   1.373       .  A
O823        C824   1.332   1_556  A
C824        C825   1.417       .  A
C825        H831   1.067       .  S
O826        C827   1.336       .  A
C827        C828   1.384       .  A
C828        H832   1.083       .  S
C833        C838   1.379       .  A
C833        C834   1.399       .  A
C833        O839   1.321       .  A
C834        C835   1.403       .  A
C834        H845   1.079       .  S
C835        C844   1.351       .  A
C835        C836   1.358       .  A
C836        C837   1.413       .  A
C836        O842   1.327       .  A
C837        C838   1.414       .  A
C837        H846   1.081       .  S
C838        C841   1.369       .  A
O839        C840   1.330       .  A
C840        C841   1.398       .  A
C841        H847   1.082       .  S
O842        C843   1.353       .  A
C843        C844   1.398       .  A
C844        H848   1.030       .  S
C849        C850   1.392       .  A
C849        O855   1.315       .  A
C850        H861   1.080       .  S
C851        C860   1.343       .  A
C851        C852   1.358       .  A
C852        C853   1.406       .  A
C852        O858   1.320       .  A
C853        C854   1.408       .  A
C853        H862   1.082       .  S
C854        C857   1.361       .  A
C856        C857   1.395       .  A
C857        H863   1.082       .  S
O858        C859   1.345       .  A
C859        C860   1.399       .  A
C865        C870   1.381       .  A
C865        C866   1.408       .  A
C865        O871   1.318       .  A
C866        C867   1.407       .  A
C867        C876   1.373       .  A
C867        C868   1.363       .  A
C868        C869   1.391       .  A
C868        O874   1.303       .  A
C869        C870   1.388       .  A
C869        H878   1.079       .  S
C870        C873   1.351       .  A
O871        C872   1.332       .  A
C872        C873   1.383       .  A
C873        H879   1.083       .  S
O874        C875   1.334       .  A
C875        C876   1.405       .  A
C876        H880   1.062       .  S
C881        C886   1.378       .  A
C881        C882   1.394   1_655  A
C881        O887   1.316       .  A
C882        C883   1.399   1_455  A
C882        H893   1.083       .  S
C883        C892   1.331   1_655  A
C883        C884   1.362       .  A
C884        C885   1.413       .  A
C884        O890   1.338       .  A
C885        C886   1.416       .  A
C885        H894   1.073       .  S
C886        C889   1.371       .  A
O887        C888   1.327       .  A
C888        C889   1.397       .  A
C889        H895   1.081       .  S
O890        C891   1.344       .  A
C891        C892   1.404   1_655  A
C892        H896   1.056       .  S
C897        C898   1.414       .  A
C897        O903   1.328       .  A
C898        C899   1.414       .  A
C898        H909   1.082       .  S
C899        C908   1.365       .  A
C900        C901   1.399       .  A
C900        O906   1.316       .  A
C901        C902   1.396       .  A
C901        H910   1.078       .  S
C902        C905   1.357       .  A
O903        C904   1.338       .  A
C905        H911   1.082       .  S
O906        C907   1.337       .  A
C908        H912   1.065       .  S
