geometry optimzed in LAMMPS
_audit_creation_date              2020-12-01 
_audit_creation_method            'lammps2cif' 
_symmetry_space_group_name_H-M    'P1' 
_symmetry_Int_Tables_number       1 
_symmetry_cell_setting            triclinic 
loop_ 
_symmetry_equiv_pos_as_xyz 
  x,y,z 
_cell_length_a                    38.57461475 
_cell_length_b                    38.53762243434425 
_cell_length_c                    38.64892062106356 
_cell_angle_alpha                 89.24844202168285 
_cell_angle_beta                  89.35147871013665 
_cell_angle_gamma                 90.40262354709425 
loop_ 
_atom_site_label 
_atom_site_type_symbol 
_atom_site_fract_x 
_atom_site_fract_y 
_atom_site_fract_z 
_atom_site_charge 
C1          C  0.75719989  0.48945043  0.99900197    -0.02500
C2          C  0.51517963  0.75203297  0.00115089    -0.02500
C3          C  0.01207593  0.49682910  0.74864312    -0.02500
C4          C  0.48354442  0.00474447  0.75380903    -0.02500
C5          C  0.74534455  0.98691237  0.50948404    -0.02500
C6          C  0.01515621  0.75794262  0.50163678    -0.02500
C7          C  0.26240741  0.51258560  0.00376702    -0.02500
O8          O  0.04737596  0.46473047  0.95164601    -0.71700
O9          O  0.97830982  0.48380561  0.01731862    -0.72000
O10         O  0.04631648  0.48122055  0.01767843    -0.71800
O11         O  0.97985886  0.46813762  0.95097054    -0.71800
O12         O  0.97414186  0.41348447  0.96478322    -0.71800
O13         O  0.04518149  0.42670147  0.03216733    -0.71800
O14         O  0.97580104  0.42916033  0.03184995    -0.71800
O15         O  0.04551186  0.40967834  0.96484239    -0.71900
V16         V  0.01293324  0.47314411  0.98456600     1.35200
V17         V  0.01022669  0.42048379  0.99787347     1.35200
C18         C  0.05955917  0.43467404  0.94841436     0.77500
C19         C  0.96552187  0.45985895  0.03607948     0.77600
C20         C  0.05683831  0.45710568  0.03694985     0.77400
C21         C  0.96387523  0.43992928  0.94803906     0.77400
N22         N  0.86943810  0.49927722  0.85919572    -0.03400
C23         C  0.83560820  0.50779779  0.86505493    -0.00800
C24         C  0.82201184  0.52171082  0.83491544    -0.23700
C25         C  0.84836307  0.52214367  0.81030301    -0.23900
C26         C  0.87737483  0.50850800  0.82596811    -0.00900
H27         H  0.79579450  0.53068510  0.83116653     0.12800
H28         H  0.84658961  0.53157769  0.78389547     0.12900
C29         C  0.00330588  0.51174803  0.24945510    -0.02500
N30         N  0.86614006  0.49665034  0.13850612    -0.03400
C31         C  0.83214856  0.50001635  0.13075495    -0.00800
C32         C  0.81363475  0.50794040  0.16038682    -0.23700
C33         C  0.83741125  0.50974768  0.18697266    -0.23900
C34         C  0.86968556  0.50214252  0.17292931    -0.00900
H35         H  0.78602747  0.51238101  0.16240591     0.12800
H36         H  0.83175005  0.51611400  0.21361970     0.12900
N37         N  0.14721017  0.50662851  0.86927090    -0.03400
C38         C  0.17723503  0.52467066  0.87537449    -0.00800
C39         C  0.18418165  0.54715321  0.84799048    -0.23700
C40         C  0.15775051  0.54321598  0.82465782    -0.23900
C41         C  0.13506303  0.51832403  0.83807622    -0.00900
H42         H  0.20616692  0.56459981  0.84522462     0.12800
H43         H  0.15536639  0.55708122  0.80027537     0.12900
O44         O  0.46648958  0.46024657  0.07086946    -0.71700
O45         O  0.53752161  0.52906333  0.06339856    -0.72000
O46         O  0.46904678  0.53117788  0.06946381    -0.71800
O47         O  0.53584368  0.45986478  0.06568830    -0.71800
O48         O  0.52210471  0.45324837  0.01170913    -0.71800
O49         O  0.47413220  0.53611872  0.01367499    -0.71800
O50         O  0.53939930  0.51896861  0.00823436    -0.71800
O51         O  0.45647070  0.47117155  0.01674440    -0.71900
V52         V  0.50190477  0.49504054  0.06700155     1.35200
V53         V  0.49798037  0.49475413  0.01357880     1.35200
C54         C  0.45004314  0.45364327  0.04351731     0.77500
C55         C  0.55127788  0.53451847  0.03389831     0.77600
C56         C  0.46314152  0.54789190  0.04175456     0.77400
C57         C  0.54031281  0.44476681  0.03724323     0.77400
N58         N  0.65430510  0.63590542  0.00714630    -0.03400
C59         C  0.68845071  0.62818364  0.00940283    -0.00800
C60         C  0.70670165  0.65852907  0.01480846    -0.23700
C61         C  0.68253353  0.68514136  0.01604726    -0.23900
C62         C  0.64976056  0.67083476  0.01056424    -0.00900
H63         H  0.73431111  0.66100115  0.01884328     0.12800
H64         H  0.68865063  0.71179294  0.02190186     0.12900
C65         C  0.48998459  0.25351297  0.99751856    -0.02500
O66         O  0.56243600  0.05055007  0.96895606    -0.71700
O67         O  0.59459301  0.97854473  0.02928695    -0.72000
O68         O  0.56808630  0.98150251  0.96492024    -0.71800
O69         O  0.58934488  0.04811958  0.03406791    -0.71800
O70         O  0.53546884  0.04454073  0.05085389    -0.71800
O71         O  0.51794656  0.97253613  0.98938300    -0.71800
O72         O  0.54328463  0.97662032  0.05318673    -0.71800
O73         O  0.51030364  0.04044382  0.98809369    -0.71900
V74         V  0.57787612  0.01472808  0.99964309     1.35200
V75         V  0.52792320  0.00873205  0.02000445     1.35200
C76         C  0.53022188  0.05646683  0.96731462     0.77500
C77         C  0.57383411  0.96543674  0.05152808     0.77600
C78         C  0.53933206  0.96533933  0.96575223     0.77400
C79         C  0.56542458  0.05710805  0.05464639     0.77400
N80         N  0.51073448  0.86334217  0.86327634    -0.03400
C81         C  0.51510184  0.82812255  0.86747298    -0.00800
C82         C  0.50428552  0.81235633  0.83724205    -0.23700
C83         C  0.49330352  0.83793106  0.81480691    -0.23900
C84         C  0.49733127  0.86940764  0.83106538    -0.00900
H85         H  0.50374606  0.78504301  0.83142767     0.12800
H86         H  0.48342339  0.83372292  0.78909880     0.12900
C87         C  0.49456063  0.00203119  0.25353094    -0.02500
N88         N  0.51939225  0.86738233  0.13568258    -0.03400
C89         C  0.50418956  0.83614094  0.12801426    -0.00800
C90         C  0.47846644  0.82762272  0.15170348    -0.23700
C91         C  0.47709367  0.85410156  0.17483778    -0.23900
C92         C  0.50173163  0.87843864  0.16451123    -0.00900
H93         H  0.46156361  0.80509782  0.15134349     0.12800
H94         H  0.45907261  0.85610727  0.19638714     0.12900
N95         N  0.46152222  0.13993002  0.86665084    -0.03400
C96         C  0.45156378  0.17284972  0.87278007    -0.00800
C97         C  0.43610883  0.18637028  0.84345766    -0.23700
C98         C  0.43627265  0.16024751  0.81901327    -0.23900
C99         C  0.45182970  0.13169417  0.83426600    -0.00900
H100        H  0.42674879  0.21255058  0.83983666     0.12800
H101        H  0.42694919  0.16221043  0.79276879     0.12900
O102        O  0.92793904  0.54173131  0.53599983    -0.71700
O103        O  0.92980575  0.48582917  0.45505116    -0.72000
O104        O  0.93125713  0.47334844  0.52365713    -0.71800
O105        O  0.92541773  0.55484230  0.46684845    -0.71800
O106        O  0.98128534  0.55162582  0.45930305    -0.71800
O107        O  0.98679647  0.48281233  0.52711005    -0.71800
O108        O  0.98569587  0.48398719  0.45973114    -0.71800
O109        O  0.98316277  0.55053936  0.52736139    -0.71900
V110        V  0.92916068  0.51405787  0.49523602     1.35200
V111        V  0.98302685  0.51732643  0.49336671     1.35200
C112        C  0.95634796  0.55510148  0.54537862     0.77500
C113        C  0.95885290  0.47426378  0.44479185     0.77600
C114        C  0.96054052  0.46486284  0.53531988     0.77400
C115        C  0.95308857  0.56664409  0.45322776     0.77400
N116        N  0.01464741  0.64170939  0.64280715    -0.03400
C117        C  0.02116425  0.63664087  0.67715809    -0.00800
C118        C  0.03367877  0.66740560  0.69050141    -0.23700
C119        C  0.03578350  0.69119444  0.66349707    -0.23900
C120        C  0.02397815  0.67489829  0.63404986    -0.00900
H121        H  0.04056726  0.67231309  0.71704346     0.12800
H122        H  0.04477127  0.71775730  0.66537392     0.12900
O123        O  0.45688523  0.97403940  0.45679928    -0.71700
O124        O  0.53615306  0.97373990  0.51008506    -0.72000
O125        O  0.52179221  0.95613710  0.44566731    -0.71800
O126        O  0.47090236  0.99072023  0.52112206    -0.71800
O127        O  0.45256705  0.93853362  0.53301284    -0.71800
O128        O  0.51847814  0.90418570  0.46809000    -0.71800
O129        O  0.52050992  0.92521061  0.53457077    -0.71800
O130        O  0.44844023  0.91897017  0.46679841    -0.71900
V131        V  0.49622775  0.97253804  0.48357132     1.35200
V132        V  0.48515220  0.92214556  0.50004909     1.35200
C133        C  0.43870582  0.94729384  0.45290758     0.77500
C134        C  0.54026406  0.95171214  0.53398109     0.77600
C135        C  0.53211288  0.92515177  0.44638567     0.77400
C136        C  0.45209555  0.97060893  0.53945876     0.77400
N137        N  0.62613673  0.00465836  0.64117667    -0.03400
C138        C  0.61732758  0.01286552  0.67438574    -0.00800
C139        C  0.64683047  0.02439945  0.69110344    -0.23700
C140        C  0.67405088  0.02328886  0.66773592    -0.23900
C141        C  0.66073462  0.01145448  0.63700734    -0.00900
H142        H  0.64854869  0.03280418  0.71763482     0.12800
H143        H  0.70072028  0.03022625  0.67279836     0.12900
C144        C  0.24349526  0.02539368  0.49740416    -0.02500
O145        O  0.03508833  0.03116367  0.42129602    -0.71700
O146        O  0.95730578  0.97009663  0.42530146    -0.72000
O147        O  0.96584624  0.03965808  0.42246738    -0.71800
O148        O  0.02635775  0.96196557  0.42490746    -0.71800
O149        O  0.02209229  0.96255039  0.48091715    -0.71800
O150        O  0.97048303  0.04249263  0.47831640    -0.71800
O151        O  0.95614868  0.97619436  0.48113594    -0.71800
O152        O  0.03658797  0.02889413  0.47742218    -0.71900
V153        V  0.99608657  0.00077555  0.42420902     1.35200
V154        V  0.99631608  0.00250351  0.47813904     1.35200
C155        C  0.04940381  0.03965796  0.44921798     0.77500
C156        C  0.94375883  0.96287020  0.45442970     0.77600
C157        C  0.95865503  0.05453195  0.45066804     0.77400
C158        C  0.03430892  0.94917383  0.45405524     0.77400
N159        N  0.86273487  0.85486347  0.50836180    -0.03400
C160        C  0.82794985  0.85572870  0.51491642    -0.00800
C161        C  0.81827888  0.82496960  0.53124239    -0.23700
C162        C  0.84776406  0.80482680  0.53384081    -0.23900
C163        C  0.87537221  0.82366624  0.51949043    -0.00900
H164        H  0.79268086  0.81810272  0.54093559     0.12800
H165        H  0.84878039  0.77916891  0.54546138     0.12900
C166        C  0.98071285  0.25328086  0.48992554    -0.02500
N167        N  0.84582427  0.13769147  0.48562024    -0.03400
C168        C  0.81484334  0.12446882  0.49699036    -0.00800
C169        C  0.79709439  0.15014141  0.51442534    -0.23700
C170        C  0.81810231  0.17955590  0.51399603    -0.23900
C171        C  0.84815678  0.17126680  0.49612606    -0.00900
H172        H  0.77230590  0.14729223  0.52757715     0.12800
H173        H  0.81271896  0.20373595  0.52684315     0.12900
N174        N  0.14909175  0.87224956  0.49494896    -0.03400
C175        C  0.14927698  0.83728682  0.49901197    -0.00800
C176        C  0.18241537  0.82726474  0.50817323    -0.23700
C177        C  0.20221175  0.85740040  0.51078945    -0.23900
C178        C  0.18079145  0.88511727  0.50300206    -0.00900
H179        H  0.19108238  0.80115063  0.51362813     0.12800
H180        H  0.22907091  0.85887081  0.51843056     0.12900
N181        N  0.35560792  0.02839764  0.63513893    -0.03400
C182        C  0.35859157  0.03234308  0.66967951    -0.00800
C183        C  0.32748143  0.04343144  0.68352979    -0.23700
C184        C  0.30475301  0.04640608  0.65620696    -0.23900
C185        C  0.32277388  0.03688982  0.62661958    -0.00900
H186        H  0.32184337  0.04852387  0.71046755     0.12800
H187        H  0.27789243  0.05418609  0.65784908     0.12900
N188        N  0.01051202  0.36353947  0.62703536    -0.03400
C189        C  0.02243983  0.37002533  0.65962520    -0.00800
C190        C  0.03374238  0.33865962  0.67355936    -0.23700
C191        C  0.02831278  0.31312905  0.64939575    -0.23900
C192        C  0.01428131  0.32902359  0.62060925    -0.00900
H193        H  0.04481072  0.33438613  0.69883046     0.12800
H194        H  0.03425633  0.28588732  0.65255564     0.12900
N195        N  0.12967144  0.15617837  0.47816992    -0.03400
C196        C  0.11471631  0.18647220  0.48727616    -0.00800
C197        C  0.13808534  0.20587542  0.50605005    -0.23700
C198        C  0.16796966  0.18630005  0.50906446    -0.23900
C199        C  0.16195582  0.15573650  0.49175077    -0.00900
H200        H  0.13312439  0.23049563  0.51823861     0.12800
H201        H  0.19067359  0.19280953  0.52389081     0.12900
N202        N  0.62707978  0.99440497  0.37609561    -0.03400
C203        C  0.61848149  0.01046833  0.34551923    -0.00800
C204        C  0.64428674  0.03388744  0.33584325    -0.23700
C205        C  0.66922461  0.03268390  0.36091773    -0.23900
C206        C  0.65826987  0.00846237  0.38536574    -0.00900
H207        H  0.64468482  0.05053102  0.31306502     0.12800
H208        H  0.69278627  0.04807269  0.36143613     0.12900
N209        N  0.02350894  0.65052992  0.36344552    -0.03400
C210        C  0.03819482  0.63644335  0.33445934    -0.00800
C211        C  0.06503864  0.65805323  0.32301542    -0.23700
C212        C  0.06768305  0.68510958  0.34598889    -0.23900
C213        C  0.04214762  0.67978543  0.37078775    -0.00900
H214        H  0.08148918  0.65420120  0.30054478     0.12800
H215        H  0.08652851  0.70603563  0.34498979     0.12900
N216        N  0.64283418  0.35025604  0.99803672    -0.03400
C217        C  0.67661732  0.35584098  0.98913670    -0.00800
C218        C  0.68959124  0.32516444  0.97604536    -0.23700
C219        C  0.66246322  0.30116693  0.97606698    -0.23900
C220        C  0.63344673  0.31718772  0.99000411    -0.00900
H221        H  0.71559277  0.32081834  0.96636353     0.12800
H222        H  0.66376458  0.27528456  0.96569923     0.12900
N223        N  0.49786006  0.13965328  0.14038813    -0.03400
C224        C  0.48339153  0.16948004  0.12772324    -0.00800
C225        C  0.45999552  0.18240302  0.15158370    -0.23700
C226        C  0.45946025  0.15996341  0.17947829    -0.23900
C227        C  0.48296692  0.13412319  0.17236163    -0.00900
H228        H  0.44444452  0.20550461  0.14868145     0.15800
H229        H  0.44319223  0.16193089  0.20235300     0.12900
N230        N  0.36771517  0.65588117  0.03215404    -0.03400
C231        C  0.37266753  0.69023985  0.02558996    -0.00800
C232        C  0.34226003  0.70342796  0.01199969    -0.23700
C233        C  0.31916094  0.67587037  0.00892447    -0.23900
C234        C  0.33605771  0.64633979  0.02031123    -0.00900
H235        H  0.33854586  0.72940470  0.00180788     0.12800
H236        H  0.29416577  0.67683413  0.99654013     0.12900
N237        N  0.14800373  0.50521441  0.14138284    -0.03400
C238        C  0.18155350  0.51439673  0.13457148    -0.00800
C239        C  0.19525895  0.52988456  0.16347881    -0.23700
C240        C  0.16938066  0.52997569  0.18850160    -0.23900
C241        C  0.14030685  0.51426063  0.17455101    -0.00900
H242        H  0.22076121  0.54148655  0.16561035     0.12800
H243        H  0.17126603  0.54205938  0.21350354     0.12900
N244        N  0.97310925  0.36557861  0.34932242    -0.03400
C245        C  0.98206513  0.37093902  0.31565146    -0.00800
C246        C  0.98717756  0.33879489  0.30066079    -0.23700
C247        C  0.98271094  0.31380240  0.32671052    -0.23900
C248        C  0.97428820  0.33125503  0.35669175    -0.00900
H249        H  0.99470076  0.33391287  0.27413784     0.12800
H250        H  0.98674150  0.28618087  0.32431023     0.12900
N251        N  0.34517056  0.99798523  0.35556298    -0.03400
C252        C  0.35805872  0.01045999  0.32500292    -0.00800
C253        C  0.33495968  0.03353669  0.31042064    -0.23700
C254        C  0.30753826  0.03631198  0.33341915    -0.23900
C255        C  0.31463689  0.01456504  0.36110764    -0.00900
H256        H  0.33892235  0.04874647  0.28695660     0.12800
H257        H  0.28616814  0.05423925  0.33142709     0.12900
N258        N  0.34582921  0.35498687  0.01891910    -0.03400
C259        C  0.35096512  0.32342078  0.00448058    -0.00800
C260        C  0.32277791  0.31534055  0.98419135    -0.23700
C261        C  0.30034657  0.34333093  0.98572660    -0.23900
C262        C  0.31553484  0.36775497  0.00680111    -0.00900
H263        H  0.32021835  0.29305742  0.96765281     0.12800
H264        H  0.27716991  0.34676503  0.97058832     0.12900
C265        C  0.01052537  0.22623460  0.48226202    -0.06100
C266        C  0.01949944  0.20223879  0.50878230    -0.17200
C267        C  0.05275600  0.18731307  0.51006225     0.11100
C268        C  0.07721710  0.19516226  0.48373663    -0.06000
C269        C  0.06584739  0.21265600  0.45405516    -0.17200
C270        C  0.03171064  0.22519930  0.45174499     0.11100
S271        S  0.06471174  0.16075635  0.54673692    -0.32200
S272        S  0.01456188  0.23251569  0.40891105    -0.32200
H273        H  0.04578050  0.22836704  0.39031927     0.29100
H274        H  0.03099709  0.15675239  0.56055977     0.29100
H275        H  0.00233131  0.19881136  0.53081831     0.19700
H276        H  0.08362674  0.21618902  0.43246690     0.19700
C277        C  0.94684074  0.22963961  0.49483365    -0.06100
C278        C  0.93425591  0.21246769  0.46523125    -0.17200
C279        C  0.90095943  0.19758480  0.46400985     0.11100
C280        C  0.88084876  0.19333802  0.49452209    -0.06000
C281        C  0.89504372  0.20563256  0.52539183    -0.17200
C282        C  0.92778157  0.22261802  0.52637736     0.11100
S283        S  0.88458374  0.18756996  0.42187557    -0.32200
S284        S  0.94623813  0.22797768  0.56883900    -0.32200
H285        H  0.91550557  0.22347503  0.58835170     0.29100
H286        H  0.84969642  0.19380950  0.43055673     0.29100
H287        H  0.94901652  0.21409364  0.44131319     0.19700
H288        H  0.88116484  0.19990242  0.54930300     0.19700
C289        C  0.98962159  0.27538259  0.52331313    -0.06100
C290        C  0.02217245  0.27214947  0.53998816    -0.17200
C291        C  0.03045725  0.28872773  0.57088309     0.11100
C292        C  0.00632725  0.31092095  0.58694264    -0.06000
C293        C  0.97474856  0.31659582  0.56976508    -0.17200
C294        C  0.96659443  0.30023096  0.53808790     0.11100
S295        S  0.07353102  0.28099749  0.58710592    -0.32200
S296        S  0.92562681  0.31030474  0.51833927    -0.32200
H297        H  0.91857578  0.34020985  0.53761823     0.29100
H298        H  0.07895876  0.31409673  0.60072620     0.29100
H299        H  0.04307924  0.25795356  0.52833072     0.19700
H300        H  0.95593180  0.33356165  0.58155753     0.19700
C301        C  0.97690994  0.28058014  0.45872609    -0.06100
C302        C  0.94556680  0.28337181  0.43987675    -0.17200
C303        C  0.94418983  0.29791703  0.40639691     0.11100
C304        C  0.97328009  0.31575411  0.39251273    -0.06000
C305        C  0.00231341  0.31965002  0.41372442    -0.17200
C306        C  0.00467065  0.30262304  0.44634397     0.11100
S307        S  0.90437551  0.29141424  0.38308329    -0.32200
S308        S  0.04471238  0.30766571  0.46957800    -0.32200
H309        H  0.05859237  0.33534431  0.44966032     0.29100
H310        H  0.91601941  0.30121689  0.34988949     0.29100
H311        H  0.92156368  0.27295587  0.45024348     0.19700
H312        H  0.02411426  0.33468213  0.40372573     0.19700
C313        C  0.07831613  0.06402367  0.45068382    -0.06100
C314        C  0.08097760  0.09100106  0.42603270    -0.17200
C315        C  0.09915127  0.12145058  0.43368349     0.11100
C316        C  0.11178596  0.12567610  0.46752709    -0.06000
C317        C  0.10932244  0.09828569  0.49139628    -0.17200
C318        C  0.09641541  0.06648159  0.48197357     0.11100
S319        S  0.10446524  0.15357730  0.39973726    -0.32200
S320        S  0.10269723  0.03039982  0.51153913    -0.32200
H321        H  0.10006445  0.00478884  0.48601298     0.29100
H322        H  0.13077032  0.17298655  0.41538761     0.29100
H323        H  0.06767642  0.08904965  0.40158405     0.19700
H324        H  0.11834619  0.10152533  0.51749122     0.19700
C325        C  0.05959890  0.92168913  0.45905996    -0.06100
C326        C  0.06018092  0.90683374  0.49249485    -0.17200
C327        C  0.09049442  0.89373617  0.50590296     0.11100
C328        C  0.11969108  0.89132220  0.48412732    -0.06000
C329        C  0.11727583  0.90049686  0.44900687    -0.17200
C330        C  0.08793672  0.91709469  0.43636912     0.11100
S331        S  0.09007777  0.88021845  0.55074748    -0.32200
S332        S  0.08798854  0.93337869  0.39233331    -0.32200
H333        H  0.12189983  0.92323676  0.38357118     0.29100
H334        H  0.12586568  0.88371939  0.55557073     0.29100
H335        H  0.03790248  0.90882975  0.50971187     0.19700
H336        H  0.13870281  0.89473097  0.43175216     0.19700
C337        C  0.87490540  0.11810376  0.47405738    -0.06100
C338        C  0.90440171  0.11842653  0.49470072    -0.17200
C339        C  0.93494362  0.10352791  0.48345160     0.11100
C340        C  0.93440441  0.08299377  0.45351835    -0.06000
C341        C  0.90550361  0.08338628  0.43206332    -0.17200
C342        C  0.87609556  0.10198043  0.44142708     0.11100
S343        S  0.97414077  0.11041795  0.50791343    -0.32200
S344        S  0.84224700  0.10487384  0.41004369    -0.32200
H345        H  0.82704148  0.13499974  0.42316961     0.29100
H346        H  0.96132086  0.13732890  0.52864089     0.29100
H347        H  0.90362205  0.13134429  0.51937937     0.19700
H348        H  0.90533057  0.06819911  0.40865893     0.19700
C349        C  0.91585386  0.93782048  0.45958513    -0.06100
C350        C  0.89514243  0.94357414  0.48891977    -0.17200
C351        C  0.88098454  0.91602717  0.50740204     0.11100
C352        C  0.88177348  0.88272481  0.49280302    -0.06000
C353        C  0.89927035  0.87729906  0.46139579    -0.17200
C354        C  0.91749808  0.90447893  0.44508320     0.11100
S355        S  0.86673080  0.92473272  0.55115061    -0.32200
S356        S  0.94496265  0.89557192  0.40815780    -0.32200
H357        H  0.94187708  0.85917789  0.40993533     0.29100
H358        H  0.86544669  0.89028049  0.56329697     0.29100
H359        H  0.89451180  0.96907135  0.50050554     0.19700
H360        H  0.89932167  0.85158136  0.45046982     0.19700
C361        C  0.21867674  0.05810314  0.49504822    -0.06100
C362        C  0.21585313  0.07818054  0.46409614    -0.17200
C363        C  0.19946056  0.11051186  0.46288075     0.11100
C364        C  0.18437142  0.12417811  0.49298253    -0.06000
C365        C  0.18480673  0.10391766  0.52338746    -0.17200
C366        C  0.19916604  0.07031522  0.52413310     0.11100
S367        S  0.19907673  0.13326642  0.42183001    -0.32200
S368        S  0.19337443  0.04445850  0.56321544    -0.32200
H369        H  0.17406400  0.06857866  0.58227850     0.29100
H370        H  0.19802608  0.16686564  0.43551289     0.29100
H371        H  0.22620111  0.06896691  0.43991241     0.19700
H372        H  0.17170810  0.11373065  0.54612202     0.19700
C373        C  0.19046380  0.92305525  0.50573746    -0.06100
C374        C  0.18358463  0.94606626  0.47831431    -0.17200
C375        C  0.19517681  0.98077995  0.47788160     0.11100
C376        C  0.21907124  0.99237146  0.50336766    -0.06000
C377        C  0.22134571  0.97079171  0.53331301    -0.17200
C378        C  0.20766316  0.93679967  0.53470350     0.11100
S379        S  0.18217099  0.00750157  0.44162746    -0.32200
S380        S  0.21369456  0.91242035  0.57431769    -0.32200
H381        H  0.18397610  0.89150984  0.57137893     0.29100
H382        H  0.15266807  0.98784135  0.43301770     0.29100
H383        H  0.17118682  0.93661980  0.45559387     0.19700
H384        H  0.23447581  0.97975049  0.55604562     0.19700
C385        C  0.27045416  0.02992992  0.52785331    -0.06100
C386        C  0.27297543  0.06169252  0.54599647    -0.17200
C387        C  0.29091217  0.06485677  0.57708629     0.11100
C388        C  0.30790276  0.03595558  0.59113327    -0.06000
C389        C  0.31054407  0.00601339  0.57106055    -0.17200
C390        C  0.29371575  0.00327262  0.53893245     0.11100
S391        S  0.29258564  0.10643699  0.59821764    -0.32200
S392        S  0.30128943  0.96457828  0.51406936    -0.32200
H393        H  0.32844089  0.95112802  0.53407906     0.29100
H394        H  0.27820377  0.12630164  0.57124565     0.29100
H395        H  0.26087028  0.08480320  0.53619834     0.19700
H396        H  0.32499783  0.98421818  0.58107117     0.19700
C397        C  0.26589383  0.02134084  0.46299967    -0.06100
C398        C  0.26550817  0.98994878  0.44395565    -0.17200
C399        C  0.27981903  0.98735977  0.41063048     0.11100
C400        C  0.29637231  0.01625666  0.39520224    -0.06000
C401        C  0.29984977  0.04653507  0.41450084    -0.17200
C402        C  0.28707351  0.04874840  0.44863928     0.11100
S403        S  0.27550805  0.94642467  0.38895748    -0.32200
S404        S  0.29764555  0.08755244  0.47224858    -0.32200
H405        H  0.31631358  0.10522249  0.44591552     0.29100
H406        H  0.27505765  0.96032192  0.35515690     0.29100
H407        H  0.25421564  0.96647844  0.45469401     0.19700
H408        H  0.31441711  0.06801027  0.40313585     0.19700
C409        C  0.40650233  0.95224521  0.43384499    -0.06100
C410        C  0.39904324  0.93273272  0.40447179    -0.17200
C411        C  0.37651463  0.94601134  0.37922565     0.11100
C412        C  0.36472611  0.98066855  0.38197327    -0.06000
C413        C  0.37174065  0.99907987  0.41188426    -0.17200
C414        C  0.38922820  0.98393784  0.43894695     0.11100
S415        S  0.36378617  0.91757279  0.34498844    -0.32200
S416        S  0.39071078  0.00753186  0.47885347    -0.32200
H417        H  0.39209132  0.97724100  0.49946240     0.29100
H418        H  0.33562684  0.93734753  0.33347585     0.29100
H419        H  0.41160234  0.90800951  0.40058953     0.19700
H420        H  0.36349579  0.02563651  0.41429856     0.19700
C421        C  0.56542710  0.91852537  0.42934785    -0.06100
C422        C  0.59149876  0.93601366  0.44698855    -0.17200
C423        C  0.60612084  0.96519132  0.43091055     0.11100
C424        C  0.60829633  0.96680704  0.39425880    -0.06000
C425        C  0.59068003  0.94087653  0.37567606    -0.17200
C426        C  0.56732783  0.91827268  0.39301581     0.11100
S427        S  0.60790489  0.00279895  0.45798319    -0.32200
S428        S  0.53830220  0.89190859  0.36837456    -0.32200
H429        H  0.52494519  0.87301109  0.39701491     0.29100
H430        H  0.60361012  0.02710522  0.43109780     0.29100
H431        H  0.59036798  0.93572517  0.47509020     0.19700
H432        H  0.59250982  0.94026966  0.34774616     0.19700
C433        C  0.60413266  0.99078047  0.61489403    -0.06100
C434        C  0.58696912  0.95886419  0.62040951    -0.17200
C435        C  0.56699248  0.94376722  0.59416800     0.11100
C436        C  0.56552360  0.96043827  0.56132970    -0.06000
C437        C  0.58442683  0.99145969  0.55592826    -0.17200
C438        C  0.60187568  0.00752638  0.58241559     0.11100
S439        S  0.54342662  0.90402381  0.60342036    -0.32200
S440        S  0.61827654  0.05079626  0.57357725    -0.32200
H441        H  0.61686822  0.06202953  0.60798804     0.29100
H442        H  0.54927300  0.90320237  0.63929300     0.29100
H443        H  0.58925501  0.94601082  0.64533314     0.19700
H444        H  0.58357918  0.00521031  0.53136432     0.19700
C445        C  0.38163417  0.01492486  0.61256048    -0.06100
C446        C  0.39084817  0.98004253  0.61635463    -0.17200
C447        C  0.41464389  0.96488660  0.59383153     0.11100
C448        C  0.42925947  0.98506226  0.56643900    -0.06000
C449        C  0.42066257  0.02037306  0.56355866    -0.17200
C450        C  0.39698802  0.03547072  0.58613246     0.11100
S451        S  0.42550560  0.92018193  0.60211604    -0.32200
S452        S  0.38728417  0.08074583  0.57908631    -0.32200
H453        H  0.37099186  0.08700026  0.61095413     0.29100
H454        H  0.46132947  0.92548305  0.59692459     0.29100
H455        H  0.37897093  0.96448842  0.63687432     0.19700
H456        H  0.43176817  0.03633453  0.54291631     0.19700
C457        C  0.99774551  0.63559107  0.38654954    -0.06100
C458        C  0.00523804  0.63468625  0.42187355    -0.17200
C459        C  0.98211259  0.62108678  0.44572591     0.11100
C460        C  0.95565919  0.59926158  0.43407674    -0.06000
C461        C  0.94621479  0.60084154  0.39912418    -0.17200
C462        C  0.96582549  0.62130319  0.37554668     0.11100
S463        S  0.99267922  0.62471560  0.49077845    -0.32200
S464        S  0.94919235  0.62787630  0.33272722    -0.32200
H465        H  0.96857018  0.65819918  0.32546519     0.29100
H466        H  0.95866466  0.61762059  0.50222745     0.29100
H467        H  0.02995398  0.64327335  0.43125358     0.19700
H468        H  0.92513178  0.58482949  0.38994488     0.19700
C469        C  0.96229622  0.44846800  0.41769704    -0.06100
C470        C  0.93296802  0.42907776  0.40882415    -0.17200
C471        C  0.93587109  0.40135648  0.38640737     0.11100
C472        C  0.96889232  0.39211503  0.37396118    -0.06000
C473        C  0.99804767  0.41149218  0.38225848    -0.17200
C474        C  0.99524612  0.44026433  0.40317513     0.11100
S475        S  0.89650379  0.38027310  0.37314938    -0.32200
S476        S  0.03395510  0.46636005  0.40932862    -0.32200
H477        H  0.05774173  0.44438830  0.39280642     0.29100
H478        H  0.90899474  0.36863852  0.34108718     0.29100
H479        H  0.90769880  0.43544492  0.41939628     0.19700
H480        H  0.02280069  0.40446742  0.37098008     0.19700
C481        C  0.96144849  0.57301017  0.57773407    -0.06100
C482        C  0.99045144  0.56155227  0.59606245    -0.17200
C483        C  0.00965723  0.58424663  0.61566544     0.11100
C484        C  0.99681486  0.61791458  0.62118037    -0.06000
C485        C  0.96525290  0.62803635  0.60634396    -0.17200
C486        C  0.94778512  0.60603779  0.58373423     0.11100
S487        S  0.05165783  0.56930736  0.62964727    -0.32200
S488        S  0.91010133  0.62092260  0.56082715    -0.32200
H489        H  0.90882547  0.65402243  0.57569979     0.29100
H490        H  0.06644656  0.60197582  0.63563093     0.29100
H491        H  0.00106391  0.53606929  0.59101762     0.19700
H492        H  0.95532065  0.65368557  0.61142700     0.19700
C493        C  0.96628246  0.43396870  0.55629622    -0.06100
C494        C  0.99519918  0.41456510  0.54659552    -0.17200
C495        C  0.01105679  0.39265183  0.56996921     0.11100
C496        C  0.99588266  0.38755287  0.60306332    -0.06000
C497        C  0.96500638  0.40454445  0.61183239    -0.17200
C498        C  0.95020280  0.42837768  0.58873102     0.11100
S499        S  0.05250746  0.37537738  0.55697844    -0.32200
S500        S  0.91284091  0.45318660  0.60157986    -0.32200
H501        H  0.90804199  0.43715579  0.63421841     0.29100
H502        H  0.06585805  0.37215468  0.59042894     0.29100
H503        H  0.00763839  0.41922085  0.52161446     0.19700
H504        H  0.95337970  0.39980457  0.63708475     0.19700
C505        C  0.49141922  0.03778291  0.23246992    -0.06100
C506        C  0.51820331  0.06350379  0.23296649    -0.17200
C507        C  0.51693996  0.09443436  0.21323547     0.11100
C508        C  0.48658476  0.10293035  0.19536082    -0.06000
C509        C  0.45795497  0.08071087  0.19886554    -0.17200
C510        C  0.46063743  0.04755449  0.21413688     0.11100
S511        S  0.55489779  0.12206818  0.21244325    -0.32200
S512        S  0.42436474  0.01848753  0.20739266    -0.32200
H513        H  0.40890444  0.03678662  0.17994761     0.29100
H514        H  0.53798492  0.15318135  0.20409534     0.29100
H515        H  0.54135372  0.05978815  0.24777189     0.19700
H516        H  0.43417821  0.08804548  0.18613916     0.19700
C517        C  0.50541103  0.91149386  0.18393660    -0.06100
C518        C  0.51189871  0.90835489  0.21943128    -0.17200
C519        C  0.50910291  0.93650658  0.24196101     0.11100
C520        C  0.49966330  0.97010935  0.22896554    -0.06000
C521        C  0.49606873  0.97328198  0.19243640    -0.17200
C522        C  0.49750496  0.94457342  0.17031588     0.11100
S523        S  0.51222941  0.92667904  0.28770250    -0.32200
S524        S  0.48698267  0.95195645  0.12545717    -0.32200
H525        H  0.47263232  0.91900970  0.11948125     0.29100
H526        H  0.53028459  0.89526541  0.28455970     0.29100
H527        H  0.51725644  0.88278968  0.22996042     0.19700
H528        H  0.49095930  0.99803194  0.18043332     0.19700
C529        C  0.45938189  0.99916665  0.27553144    -0.06100
C530        C  0.45097502  0.02841975  0.29611438    -0.17200
C531        C  0.41950838  0.03142686  0.31448741     0.11100
C532        C  0.39396878  0.00561427  0.31160967    -0.06000
C533        C  0.40088608  0.97693211  0.29136169    -0.17200
C534        C  0.43262654  0.97262379  0.27376152     0.11100
S535        S  0.41154867  0.06906294  0.34067523    -0.32200
S536        S  0.43192445  0.93602521  0.24494614    -0.32200
H537        H  0.41178501  0.91399068  0.26662118     0.29100
H538        H  0.44550042  0.08259390  0.33894041     0.29100
H539        H  0.46944680  0.04962201  0.29743646     0.19700
H540        H  0.37990549  0.95877986  0.28705020     0.19700
C541        C  0.52776449  0.00304055  0.27791370    -0.06100
C542        C  0.52419743  0.00488885  0.31464678    -0.17200
C543        C  0.55249981  0.00815823  0.33695511     0.11100
C544        C  0.58659089  0.00549933  0.32399729    -0.06000
C545        C  0.59097093  0.00097064  0.28828333    -0.17200
C546        C  0.56295739  0.00015820  0.26525512     0.11100
S547        S  0.54297942  0.01843764  0.38133141    -0.32200
S548        S  0.57601205  0.99392705  0.22056894    -0.32200
H549        H  0.55108259  0.01417298  0.20425521     0.29100
H550        H  0.56969007  0.04331328  0.38333614     0.29100
H551        H  0.49933492  0.00380127  0.32736218     0.19700
H552        H  0.61707284  0.99871197  0.27789627     0.19700
C553        C  0.57050124  0.07870995  0.08519757    -0.06100
C554        C  0.55312035  0.06446281  0.11405607    -0.17200
C555        C  0.52452853  0.08237395  0.12638409     0.11100
C556        C  0.52457347  0.11905356  0.12401638    -0.06000
C557        C  0.55093429  0.13517897  0.10364370    -0.17200
C558        C  0.57195729  0.11512062  0.08181828     0.11100
S559        S  0.48547227  0.05653238  0.12914625    -0.32200
S560        S  0.59611439  0.13658417  0.04756985    -0.32200
H561        H  0.61813268  0.10844733  0.04101140     0.29100
H562        H  0.46234530  0.08398261  0.12396624     0.29100
H563        H  0.55248418  0.03636270  0.11684535     0.19700
H564        H  0.55279729  0.16314325  0.10188463     0.19700
C565        C  0.51441332  0.07969392  0.94124253    -0.06100
C566        C  0.47796472  0.07886705  0.93945116    -0.17200
C567        C  0.46018372  0.09780961  0.91478614     0.11100
C568        C  0.47901456  0.11806365  0.89062337    -0.06000
C569        C  0.51529166  0.11928121  0.89185492    -0.17200
C570        C  0.53327068  0.10069896  0.91723428     0.11100
S571        S  0.41347745  0.09459308  0.91620965    -0.32200
S572        S  0.57963994  0.10590225  0.91808395    -0.32200
H573        H  0.58036592  0.11210873  0.95388409     0.29100
H574        H  0.40580201  0.11875043  0.89012409     0.29100
H575        H  0.46268793  0.06305696  0.95738620     0.19700
H576        H  0.52945622  0.13565068  0.87351112     0.19700
C577        C  0.58125616  0.93390526  0.07134537    -0.06100
C578        C  0.58453742  0.93583427  0.10740079    -0.17200
C579        C  0.56957709  0.91003907  0.12909035     0.11100
C580        C  0.54545969  0.88619783  0.11490311    -0.06000
C581        C  0.54592325  0.88298567  0.07859237    -0.17200
C582        C  0.56685799  0.90383764  0.05755546     0.11100
S583        S  0.58463358  0.90738257  0.17292872    -0.32200
S584        S  0.56790245  0.89518204  0.01189937    -0.32200
H585        H  0.59779893  0.91527135  0.00487224     0.29100
H586        H  0.57374696  0.87280770  0.17844880     0.29100
H587        H  0.59760586  0.95787591  0.11861826     0.19700
H588        H  0.52883498  0.86639931  0.06519204     0.19700
C589        C  0.53077600  0.93903403  0.93954119    -0.06100
C590        C  0.54984949  0.93934690  0.90832342    -0.17200
C591        C  0.54379357  0.91476245  0.88284460     0.11100
C592        C  0.51775337  0.88936846  0.88837015    -0.06000
C593        C  0.49820705  0.88924413  0.91910606    -0.17200
C594        C  0.50415812  0.91376647  0.94473577     0.11100
S595        S  0.57190272  0.91551408  0.84523201    -0.32200
S596        S  0.47827478  0.91087813  0.98403386    -0.32200
H597        H  0.45267742  0.88828561  0.97147611     0.29100
H598        H  0.56913331  0.88003999  0.83774068     0.29100
H599        H  0.57012173  0.95854590  0.90388557     0.19700
H600        H  0.47833748  0.86951902  0.92281596     0.19700
C601        C  0.49229908  0.22981805  0.03159671    -0.06100
C602        C  0.48755252  0.19318809  0.03084037    -0.17200
C603        C  0.48493051  0.17265771  0.06116317     0.11100
C604        C  0.49036414  0.18766584  0.09376600    -0.06000
C605        C  0.49935288  0.22285393  0.09473052    -0.17200
C606        C  0.50066481  0.24394215  0.06479059     0.11100
S607        S  0.47196865  0.12804317  0.05642351    -0.32200
S608        S  0.50935844  0.28971618  0.07108359    -0.32200
H609        H  0.52191784  0.28731478  0.10504468     0.29100
H610        H  0.44831961  0.12859432  0.08433731     0.29100
H611        H  0.48458416  0.17973832  0.00679150     0.19700
H612        H  0.50384676  0.23433011  0.11972013     0.19700
C613        C  0.48380318  0.23019542  0.96421182    -0.06100
C614        C  0.45077722  0.21348566  0.96247154    -0.17200
C615        C  0.43881368  0.19663026  0.93291352     0.11100
C616        C  0.46104048  0.19275635  0.90418251    -0.06000
C617        C  0.49418061  0.20723004  0.90544351    -0.17200
C618        C  0.50556508  0.22708268  0.93358755     0.11100
S619        S  0.39448215  0.18152460  0.93371543    -0.32200
S620        S  0.54662879  0.24906163  0.92577208    -0.32200
H621        H  0.54829584  0.24628209  0.88953573     0.29100
H622        H  0.38917984  0.18337928  0.89787973     0.29100
H623        H  0.43300482  0.21506157  0.98429206     0.19700
H624        H  0.51106243  0.20370639  0.88320294     0.19700
C625        C  0.52656438  0.27302236  0.99592690    -0.06100
C626        C  0.55667809  0.25250583  0.00180492    -0.17200
C627        C  0.59063311  0.26627962  0.00217674     0.11100
C628        C  0.59695158  0.30148755  0.99311552    -0.06000
C629        C  0.56744165  0.32196506  0.98684731    -0.17200
C630        C  0.53309509  0.30948621  0.99173343     0.11100
S631        S  0.62437163  0.23721452  0.01577230    -0.32200
S632        S  0.49981223  0.34195789  0.99554300    -0.32200
H633        H  0.52150286  0.37137990  0.99680918     0.29100
H634        H  0.64272574  0.26250540  0.03422026     0.29100
H635        H  0.55379809  0.22485128  0.00638741     0.19700
H636        H  0.57082625  0.34842173  0.97827718     0.19700
C637        C  0.45563723  0.27710134  0.99993610    -0.06100
C638        C  0.43435001  0.27654363  0.03054106    -0.17200
C639        C  0.40088354  0.29069962  0.03250953     0.11100
C640        C  0.38563106  0.30547534  0.00307614    -0.06000
C641        C  0.40527705  0.30625137  0.97233815    -0.17200
C642        C  0.43953448  0.29345110  0.97031632     0.11100
S643        S  0.37827952  0.28735169  0.07356885    -0.32200
S644        S  0.45916474  0.29848549  0.92782652    -0.32200
H645        H  0.49359944  0.29829352  0.93809398     0.29100
H646        H  0.34464645  0.28575453  0.06004535     0.29100
H647        H  0.44206852  0.26362676  0.05384918     0.19700
H648        H  0.39399560  0.31803766  0.94951319     0.19700
C649        C  0.42607964  0.42480948  0.04004176    -0.06100
C650        C  0.40401786  0.41461714  0.06741576    -0.17200
C651        C  0.37789626  0.39002951  0.06194437     0.11100
C652        C  0.37376261  0.37686383  0.02834593    -0.06000
C653        C  0.39644175  0.38643432  0.00176961    -0.17200
C654        C  0.42359751  0.40866954  0.00741224     0.11100
S655        S  0.35099606  0.37715039  0.09831977    -0.32200
S656        S  0.45413469  0.41592214  0.97188763    -0.32200
H657        H  0.44389719  0.38766332  0.95157503     0.29100
H658        H  0.33328151  0.35001706  0.08212838     0.29100
H659        H  0.40652948  0.42641022  0.09257064     0.19700
H660        H  0.39218465  0.37664065  0.97605623     0.19700
C661        C  0.39509572  0.63233800  0.03726611    -0.06100
C662        C  0.41630095  0.62565110  0.00886271    -0.17200
C663        C  0.44140446  0.60053945  0.01072920     0.11100
C664        C  0.44353087  0.57990304  0.04128146    -0.06000
C665        C  0.42399507  0.58851774  0.07070407    -0.17200
C666        C  0.40000422  0.61516671  0.06918247     0.11100
S667        S  0.46897713  0.59651085  0.97285408    -0.32200
S668        S  0.37614659  0.62500589  0.10834293    -0.32200
H669        H  0.35508006  0.65126616  0.09472422     0.29100
H670        H  0.49950414  0.59106080  0.99170409     0.29100
H671        H  0.41280007  0.64007098  0.98490234     0.19700
H672        H  0.42636635  0.57364092  0.09453599     0.19700
C673        C  0.57901405  0.55961063  0.02793338    -0.06100
C674        C  0.58220615  0.57401888  0.99430614    -0.17200
C675        C  0.60714784  0.59899525  0.98650240     0.11100
C676        C  0.62872754  0.61010366  0.01302973    -0.06000
C677        C  0.62569034  0.59603219  0.04651493    -0.17200
C678        C  0.60136958  0.57046730  0.05423060     0.11100
S679        S  0.60921558  0.61652739  0.94298336    -0.32200
S680        S  0.60110506  0.55239118  0.09746401    -0.32200
H681        H  0.59806787  0.51783189  0.08648749     0.29100
H682        H  0.64172469  0.63292928  0.94500119     0.29100
H683        H  0.56486222  0.56617897  0.97392564     0.19700
H684        H  0.64262302  0.60512295  0.06664509     0.19700
C685        C  0.56886283  0.42155771  0.03113302    -0.06100
C686        C  0.58632871  0.42687112  0.99954297    -0.17200
C687        C  0.61080253  0.40377696  0.98827965     0.11100
C688        C  0.62001252  0.37611140  0.01020072    -0.06000
C689        C  0.60472429  0.37213892  0.04312510    -0.17200
C690        C  0.57846783  0.39443395  0.05369039     0.11100
S691        S  0.62587339  0.40855225  0.94417833    -0.32200
S692        S  0.55692898  0.38559796  0.09447755    -0.32200
H693        H  0.52366394  0.39468993  0.08309127     0.29100
H694        H  0.62545067  0.37281257  0.93735307     0.29100
H695        H  0.57933191  0.44814803  0.98239014     0.19700
H696        H  0.61198608  0.35045662  0.05955981     0.19700
C697        C  0.10524142  0.51150735  0.19242766    -0.06100
C698        C  0.07466243  0.51727160  0.17384277    -0.17200
C699        C  0.04126716  0.51509475  0.18915516     0.11100
C700        C  0.03759691  0.51112826  0.22610404    -0.06000
C701        C  0.06912876  0.50780610  0.24457055    -0.17200
C702        C  0.10170161  0.50542645  0.22840436     0.11100
S703        S  0.00590132  0.52119098  0.15944400    -0.32200
S704        S  0.13718822  0.49232985  0.25548650    -0.32200
H705        H  0.15357108  0.47234461  0.22993747     0.29100
H706        H  0.02323007  0.50945313  0.12957938     0.29100
H707        H  0.07656438  0.52485974  0.14696125     0.19700
H708        H  0.06808048  0.50447467  0.27244295     0.19700
C709        C  0.90321363  0.50391643  0.19227758    -0.06100
C710        C  0.90999262  0.53361378  0.21148844    -0.17200
C711        C  0.94055672  0.53796648  0.23067856     0.11100
C712        C  0.96790723  0.51260035  0.22868712    -0.06000
C713        C  0.95977029  0.48232004  0.20950550    -0.17200
C714        C  0.92798601  0.47723947  0.19280553     0.11100
S715        S  0.93877215  0.57373193  0.26042431    -0.32200
S716        S  0.91979843  0.43474858  0.17563238    -0.32200
H717        H  0.88351417  0.43585687  0.17923572     0.29100
H718        H  0.91718746  0.59538187  0.24066035     0.29100
H719        H  0.89010933  0.55328465  0.21253988     0.19700
H720        H  0.97846277  0.46155363  0.20807740     0.19700
C721        C  0.00019300  0.47586002  0.27080607    -0.06100
C722        C  0.02192461  0.44709437  0.26283141    -0.17200
C723        C  0.01777245  0.41398328  0.27805231     0.11100
C724        C  0.98864229  0.40636087  0.29922185    -0.06000
C725        C  0.96585802  0.43376806  0.30616924    -0.17200
C726        C  0.97193295  0.46806277  0.29406088     0.11100
S727        S  0.05161742  0.38302343  0.26992013    -0.32200
S728        S  0.94158380  0.50054846  0.30803446    -0.32200
H729        H  0.92872198  0.48235163  0.33732771     0.29100
H730        H  0.05191101  0.36996773  0.30409415     0.29100
H731        H  0.04238771  0.44909149  0.24373796     0.19700
H732        H  0.94262903  0.42831799  0.32115842     0.19700
C733        C  0.00993503  0.54480678  0.27286442    -0.06100
C734        C  0.01540488  0.54173231  0.30911108    -0.17200
C735        C  0.02411140  0.57052107  0.32999026     0.11100
C736        C  0.02753739  0.60412912  0.31515105    -0.06000
C737        C  0.02380347  0.60726095  0.27926242    -0.17200
C738        C  0.01617987  0.57877286  0.25812611     0.11100
S739        S  0.03465274  0.56274036  0.37466062    -0.32200
S740        S  0.01206891  0.58821061  0.21244294    -0.32200
H741        H  0.03166506  0.61914447  0.21164451     0.29100
H742        H  0.01266323  0.53366477  0.37865234     0.29100
H743        H  0.01471044  0.51643336  0.32140343     0.19700
H744        H  0.02672637  0.63278030  0.26748710     0.19700
C745        C  0.08144710  0.46655877  0.06427092    -0.06100
C746        C  0.09697521  0.49963111  0.06089867    -0.17200
C747        C  0.11652031  0.51362275  0.08706996     0.11100
C748        C  0.12413543  0.49303816  0.11619578    -0.06000
C749        C  0.10895038  0.46001007  0.12015533    -0.17200
C750        C  0.08708643  0.44675947  0.09474441     0.11100
S751        S  0.12870004  0.55879336  0.08282485    -0.32200
S752        S  0.06641525  0.40554409  0.10342953    -0.32200
H753        H  0.03296320  0.41801900  0.09648765     0.29100
H754        H  0.13031679  0.56521680  0.11848338     0.29100
H755        H  0.09256344  0.51581893  0.03825587     0.19700
H756        H  0.11422479  0.44468982  0.14317406     0.19700
C757        C  0.09325876  0.43237689  0.93120116    -0.06100
C758        C  0.11693755  0.45470451  0.94683233    -0.17200
C759        C  0.12990709  0.48245526  0.92735018     0.11100
C760        C  0.13216219  0.47948036  0.89088695    -0.06000
C761        C  0.11741823  0.44984268  0.87563095    -0.17200
C762        C  0.09537585  0.42793517  0.89518773     0.11100
S763        S  0.13222806  0.52301621  0.94999672    -0.32200
S764        S  0.06701767  0.39875503  0.87279770    -0.32200
H765        H  0.05565249  0.38044233  0.90257310     0.29100
H766        H  0.12291381  0.54358033  0.92144232     0.29100
H767        H  0.11530155  0.45787452  0.97470276     0.19700
H768        H  0.11962116  0.44611406  0.84800866     0.19700
C769        C  0.93995924  0.46819763  0.06280471    -0.06100
C770        C  0.94384733  0.49976188  0.08010090    -0.17200
C771        C  0.92002869  0.50989021  0.10525785     0.11100
C772        C  0.89245236  0.48724195  0.11423256    -0.06000
C773        C  0.88900504  0.45538130  0.09751120    -0.17200
C774        C  0.91195451  0.44591452  0.07137977     0.11100
S775        S  0.92569219  0.55249538  0.12330961    -0.32200
S776        S  0.90261608  0.40649590  0.04856566    -0.32200
H777        H  0.91068129  0.42056062  0.01563297     0.29100
H778        H  0.89148709  0.55726584  0.13478766     0.29100
H779        H  0.96533418  0.51699288  0.07353738     0.19700
H780        H  0.86760191  0.43821742  0.10440393     0.19700
C781        C  0.93133913  0.44226975  0.92942802    -0.06100
C782        C  0.91128267  0.47028240  0.94075774    -0.17200
C783        C  0.89538392  0.49204835  0.91706576     0.11100
C784        C  0.89160913  0.48104723  0.88271526    -0.06000
C785        C  0.90723856  0.44986206  0.87238320    -0.17200
C786        C  0.92845535  0.43120503  0.89506419     0.11100
S787        S  0.88441507  0.53495954  0.93157659    -0.32200
S788        S  0.95330306  0.39569872  0.87827733    -0.32200
H789        H  0.95811382  0.37916833  0.91047622     0.29100
H790        H  0.88515768  0.55059332  0.89860410     0.29100
H791        H  0.91412013  0.47941624  0.96705088     0.19700
H792        H  0.90386449  0.44071569  0.84628630     0.19700
C793        C  0.23464556  0.51765678  0.03400942    -0.06100
C794        C  0.21237710  0.48963707  0.04317785    -0.17200
C795        C  0.19822047  0.48605267  0.07670117     0.11100
C796        C  0.19913479  0.51435558  0.09959442    -0.06000
C797        C  0.21441040  0.54537989  0.08746910    -0.17200
C798        C  0.23059526  0.54803657  0.05469163     0.11100
S799        S  0.18490175  0.44291091  0.08982280    -0.32200
S800        S  0.23847209  0.59161650  0.03831938    -0.32200
H801        H  0.24005110  0.60804265  0.07056256     0.29100
H802        H  0.19098185  0.44729117  0.12529583     0.29100
H803        H  0.21100177  0.46741756  0.02660980     0.19700
H804        H  0.21201602  0.56828871  0.10321326     0.19700
C805        C  0.23981738  0.51346170  0.96942965    -0.06100
C806        C  0.22644010  0.54584750  0.95827150    -0.17200
C807        C  0.20819172  0.55056209  0.92737569     0.11100
C808        C  0.19974998  0.52167295  0.90684790    -0.06000
C809        C  0.21040548  0.48893271  0.91841037    -0.17200
C810        C  0.22820417  0.48401794  0.94985507     0.11100
S811        S  0.19501545  0.59437017  0.91713877    -0.32200
S812        S  0.23007054  0.43945660  0.96493196    -0.32200
H813        H  0.20102166  0.42716701  0.94694074     0.29100
H814        H  0.16316789  0.58584256  0.90215688     0.29100
H815        H  0.23082235  0.56860387  0.97346465     0.19700
H816        H  0.20323834  0.46658468  0.90329960     0.19700
C817        C  0.29084707  0.54280366  0.00515589    -0.06100
C818        C  0.29777154  0.56555177  0.97661686    -0.17200
C819        C  0.31376543  0.59829371  0.98040662     0.11100
C820        C  0.32455367  0.60935228  0.01334587    -0.06000
C821        C  0.32378065  0.58447872  0.04020002    -0.17200
C822        C  0.30883316  0.55112176  0.03622792     0.11100
S823        S  0.31964123  0.62470451  0.94192081    -0.32200
S824        S  0.31038052  0.52138903  0.07269904    -0.32200
H825        H  0.32985303  0.54235909  0.09490045     0.29100
H826        H  0.35049718  0.64069775  0.95274410     0.29100
H827        H  0.28988903  0.55864720  0.95088925     0.19700
H828        H  0.33279446  0.59184820  0.06523098     0.19700
C829        C  0.28289033  0.47682457  0.00746929    -0.06100
C830        C  0.27802661  0.45426074  0.03662519    -0.17200
C831        C  0.28594476  0.41878237  0.03591476     0.11100
C832        C  0.30521536  0.40533744  0.00814597    -0.06000
C833        C  0.31619940  0.42861101  0.98182649    -0.17200
C834        C  0.30536530  0.46380796  0.98095521     0.11100
S835        S  0.26832526  0.39182936  0.07041825    -0.32200
S836        S  0.31873394  0.49052068  0.94443477    -0.32200
H837        H  0.33967108  0.46590278  0.92786348     0.29100
H838        H  0.26471382  0.36153157  0.05092042     0.29100
H839        H  0.26645401  0.46331108  0.06026823     0.19700
H840        H  0.33230074  0.41869285  0.96114150     0.19700
C841        C  0.04884450  0.78226063  0.50247917    -0.06100
C842        C  0.07526500  0.77614894  0.52749722    -0.17200
C843        C  0.10758013  0.79297665  0.52686955     0.11100
C844        C  0.11689402  0.81497589  0.49892635    -0.06000
C845        C  0.09250103  0.81930898  0.47247651    -0.17200
C846        C  0.05848540  0.80554318  0.47482476     0.11100
S847        S  0.13536445  0.78529439  0.56335910    -0.32200
S848        S  0.02870235  0.81813654  0.44133255    -0.32200
H849        H  0.04902922  0.84464469  0.42584718     0.29100
H850        H  0.14413855  0.82043108  0.56765522     0.29100
H851        H  0.07197384  0.75764412  0.54836842     0.19700
H852        H  0.09991010  0.83447636  0.44990531     0.19700
C853        C  0.97879005  0.77638855  0.50395541    -0.06100
C854        C  0.97555384  0.81268187  0.50799289    -0.17200
C855        C  0.94356222  0.82835597  0.51650886     0.11100
C856        C  0.91193811  0.80915498  0.51487461    -0.06000
C857        C  0.91496273  0.77324545  0.50971003    -0.17200
C858        C  0.94721347  0.75657393  0.50643644     0.11100
S859        S  0.94682418  0.87010918  0.53645324    -0.32200
S860        S  0.94654111  0.70978842  0.50217110    -0.32200
H861        H  0.91294466  0.70408836  0.51570174     0.29100
H862        H  0.91982694  0.86312527  0.56028971     0.29100
H863        H  0.99868919  0.82860822  0.50909455     0.19700
H864        H  0.89163215  0.75764322  0.50828935     0.19700
C865        C  0.03684070  0.70198372  0.40221140    -0.06100
C866        C  0.00562972  0.71959216  0.40601359    -0.17200
C867        C  0.99732387  0.73886355  0.43582311     0.11100
C868        C  0.01966141  0.73754591  0.46591805    -0.06000
C869        C  0.05166777  0.72014984  0.46059494    -0.17200
C870        C  0.06053644  0.70318233  0.42972818     0.11100
S871        S  0.96000839  0.76693017  0.43054614    -0.32200
S872        S  0.10178280  0.68146015  0.42822338    -0.32200
H873        H  0.09092978  0.65317998  0.40837048     0.29100
H874        H  0.95378541  0.76212784  0.39514905     0.29100
H875        H  0.98780641  0.71871970  0.38460457     0.19700
H876        H  0.07056759  0.71980517  0.48109058     0.19700
C877        C  0.01998508  0.69323343  0.59929784    -0.06100
C878        C  0.00955906  0.72788735  0.59969145    -0.17200
C879        C  0.00952678  0.74898068  0.56977008     0.11100
C880        C  0.01519876  0.73441075  0.53599171    -0.06000
C881        C  0.02366997  0.69869730  0.53579890    -0.17200
C882        C  0.02866829  0.67917972  0.56658671     0.11100
S883        S  0.00666275  0.79516456  0.57726251    -0.32200
S884        S  0.05135857  0.63891569  0.56211671    -0.32200
H885        H  0.07174394  0.64418551  0.59151524     0.29100
H886        H  0.01381152  0.79476165  0.61287773     0.29100
H887        H  0.00309113  0.73933665  0.62432976     0.19700
H888        H  0.02894386  0.68591889  0.51179188     0.19700
C889        C  0.77261403  0.01835121  0.50198923    -0.06100
C890        C  0.77038032  0.03927602  0.47148424    -0.17200
C891        C  0.78071359  0.07427975  0.47058552     0.11100
C892        C  0.80325718  0.08702784  0.49599776    -0.06000
C893        C  0.81362261  0.06358311  0.52201872    -0.17200
C894        C  0.79892217  0.02967875  0.52531864     0.11100
S895        S  0.76094625  0.10127372  0.43783849    -0.32200
S896        S  0.81437426  0.00225296  0.55968192    -0.32200
H897        H  0.84435844  0.02162013  0.56712309     0.29100
H898        H  0.76416546  0.13309290  0.45470397     0.29100
H899        H  0.75746377  0.02995870  0.44877895     0.19700
H900        H  0.83199343  0.07254745  0.54095444     0.19700
C901        C  0.76718708  0.95233969  0.51365194    -0.06100
C902        C  0.78797771  0.94277803  0.48486561    -0.17200
C903        C  0.80431238  0.91014997  0.48257490     0.11100
C904        C  0.80489926  0.88735048  0.51162186    -0.06000
C905        C  0.78628435  0.89720765  0.54104664    -0.17200
C906        C  0.76877078  0.92900406  0.54339583     0.11100
S907        S  0.81984712  0.89778899  0.44037441    -0.32200
S908        S  0.75347022  0.93591562  0.58731399    -0.32200
H909        H  0.76098336  0.97114649  0.59011317     0.29100
H910        H  0.81975648  0.86185298  0.44713403     0.29100
H911        H  0.78844196  0.95952671  0.46212223     0.19700
H912        H  0.78745530  0.88058824  0.56386344     0.19700
C913        C  0.71827649  0.98653516  0.47843014    -0.06100
C914        C  0.69956087  0.01790796  0.47373736    -0.17200
C915        C  0.68306007  0.02648611  0.44270763     0.11100
C916        C  0.67818510  0.00089477  0.41757349    -0.06000
C917        C  0.69137048  0.96772939  0.42383119    -0.17200
C918        C  0.71128467  0.95983795  0.45345023     0.11100
S919        S  0.66689706  0.07006829  0.43620784    -0.32200
S920        S  0.72175936  0.91438721  0.45907583    -0.32200
H921        H  0.71674318  0.90393776  0.42475197     0.29100
H922        H  0.67795423  0.08381413  0.46778831     0.29100
H923        H  0.70188365  0.03795895  0.49289559     0.19700
H924        H  0.68577846  0.94781545  0.40516569     0.19700
C925        C  0.72168917  0.99409438  0.54227722    -0.06100
C926        C  0.72491951  0.02529346  0.56116633    -0.17200
C927        C  0.70536989  0.03184197  0.59124534     0.11100
C928        C  0.68161162  0.00666918  0.60429865    -0.06000
C929        C  0.67658036  0.97672028  0.58488621    -0.17200
C930        C  0.69401420  0.97131380  0.55331349     0.11100
S931        S  0.71112583  0.07389587  0.61044866    -0.32200
S932        S  0.68177047  0.93284734  0.53034282    -0.32200
H933        H  0.64814530  0.92945397  0.54460958     0.29100
H934        H  0.67655808  0.07767363  0.62144960     0.29100
H935        H  0.74176280  0.04599843  0.55228963     0.19700
H936        H  0.65898485  0.95686295  0.59467582     0.19700
C937        C  0.46069195  0.09881880  0.81632879    -0.06100
C938        C  0.49245336  0.09702469  0.79893740    -0.17200
C939        C  0.50167795  0.06841983  0.77845732     0.11100
C940        C  0.47982343  0.03768729  0.77818738    -0.06000
C941        C  0.44791313  0.04045305  0.79675683    -0.17200
C942        C  0.43778564  0.07039855  0.81432349     0.11100
S943        S  0.53774058  0.07746544  0.74928975    -0.32200
S944        S  0.39435076  0.07090008  0.83190325    -0.32200
H945        H  0.38888836  0.10663279  0.82735483     0.29100
H946        H  0.55564159  0.10056898  0.77073809     0.29100
H947        H  0.50904888  0.11982195  0.79919122     0.19700
H948        H  0.42922706  0.01939350  0.79569335     0.19700
C949        C  0.49160852  0.90409572  0.81274084    -0.06100
C950        C  0.49924958  0.90653014  0.77708412    -0.17200
C951        C  0.49353859  0.93701686  0.75742332     0.11100
C952        C  0.48461744  0.96878247  0.77421047    -0.06000
C953        C  0.47790256  0.96602680  0.81037300    -0.17200
C954        C  0.47735772  0.93387634  0.82831687     0.11100
S955        S  0.49550005  0.93359642  0.71068468    -0.32200
S956        S  0.45197252  0.93057135  0.86770193    -0.32200
H957        H  0.44334576  0.96583781  0.87047230     0.29100
H958        H  0.50528018  0.89858878  0.70882144     0.29100
H959        H  0.50878582  0.88381211  0.76404274     0.19700
H960        H  0.47149569  0.98847571  0.82514658     0.19700
C961        C  0.39022137  0.02470181  0.68987180    -0.06100
C962        C  0.39192939  0.99355257  0.70844905    -0.17200
C963        C  0.42033122  0.98526074  0.72957592     0.11100
C964        C  0.45024236  0.00805209  0.73008336    -0.06000
C965        C  0.44680147  0.04007023  0.71164443    -0.17200
C966        C  0.41766623  0.04848605  0.69197794     0.11100
S967        S  0.41370964  0.94753642  0.75739053    -0.32200
S968        S  0.41498554  0.09051129  0.67106272    -0.32200
H969        H  0.44815435  0.10257779  0.67999287     0.29100
H970        H  0.37796702  0.94251477  0.75244266     0.29100
H971        H  0.36996382  0.97599734  0.70707874     0.19700
H972        H  0.46736480  0.05918299  0.71316882     0.19700
C973        C  0.51863577  0.00586856  0.73225492    -0.06100
C974        C  0.51940129  0.01242693  0.69600305    -0.17200
C975        C  0.55044311  0.01803229  0.67734057     0.11100
C976        C  0.58246144  0.00903938  0.69232706    -0.06000
C977        C  0.58200010  0.99909083  0.72750047    -0.17200
C978        C  0.55152334  0.99963649  0.74793548     0.11100
S979        S  0.54794294  0.04208592  0.63712142    -0.32200
S980        S  0.55618402  0.99543986  0.79438260    -0.32200
H981        H  0.59253769  0.99802477  0.79543416     0.29100
H982        H  0.51303236  0.05212478  0.64009262     0.29100
H983        H  0.49595489  0.01454166  0.68148532     0.19700
H984        H  0.60621648  0.99250448  0.73970579     0.19700
C985        C  0.04476612  0.49437610  0.77381818    -0.06100
C986        C  0.04126377  0.49615506  0.81042781    -0.17200
C987        C  0.06929420  0.50456530  0.83203553     0.11100
C988        C  0.10349519  0.50625978  0.81845816    -0.06000
C989        C  0.10803686  0.49891009  0.78330716    -0.17200
C990        C  0.07993489  0.49384034  0.76087083     0.11100
S991        S  0.05867649  0.51651826  0.87570889    -0.32200
S992        S  0.09063212  0.49145163  0.71525418    -0.32200
H993        H  0.12527342  0.50289854  0.71678259     0.29100
H994        H  0.08248088  0.54426241  0.87612533     0.29100
H995        H  0.01632645  0.49300788  0.82289905     0.19700
H996        H  0.13419616  0.49901871  0.77286866     0.19700
C997        C  0.91182139  0.50468485  0.80816716    -0.06100
C998        C  0.91545029  0.47863419  0.78377078    -0.17200
C999        C  0.94592741  0.47447117  0.76380173     0.11100
C1000       C  0.97564754  0.49712908  0.76882145    -0.06000
C1001       C  0.97014880  0.52460670  0.79242554    -0.17200
C1002       C  0.93954678  0.52816993  0.81221254     0.11100
S1003       S  0.94087076  0.44331123  0.72942442    -0.32200
S1004       S  0.93748034  0.56376279  0.84188830    -0.32200
H1005       H  0.90186320  0.57002292  0.83823945     0.29100
H1006       H  0.91844652  0.42040613  0.74762318     0.29100
H1007       H  0.89320803  0.46201394  0.77932472     0.19700
H1008       H  0.99045617  0.54377396  0.79583506     0.19700
C1009       C  0.02114725  0.40371429  0.68031886    -0.06100
C1010       C  0.01713339  0.40067682  0.71653476    -0.17200
C1011       C  0.01632203  0.42956120  0.73859337     0.11100
C1012       C  0.01529354  0.46410303  0.72456305    -0.06000
C1013       C  0.01990853  0.46714464  0.68817767    -0.17200
C1014       C  0.02533751  0.43806305  0.66682208     0.11100
S1015       S  0.01231093  0.42073840  0.78460264    -0.32200
S1016       S  0.04424403  0.44750629  0.62505113    -0.32200
H1017       H  0.06696000  0.41923091  0.62670923     0.29100
H1018       H  0.02528247  0.38671766  0.78392666     0.29100
H1019       H  0.01407717  0.37516785  0.72815087     0.19700
H1020       H  0.02276583  0.49255980  0.67631565     0.19700
C1021       C  0.01388704  0.53366256  0.72884328    -0.06100
C1022       C  0.03979744  0.55873309  0.73713607    -0.17200
C1023       C  0.04350347  0.59085117  0.72004328     0.11100
C1024       C  0.01779074  0.60257518  0.69707559    -0.06000
C1025       C  0.98933123  0.58031466  0.69194688    -0.17200
C1026       C  0.98809167  0.54590505  0.70528065     0.11100
S1027       S  0.08319390  0.61438419  0.72788470    -0.32200
S1028       S  0.95255527  0.51917274  0.69133383    -0.32200
H1029       H  0.94426180  0.53867084  0.66154966     0.29100
H1030       H  0.08906776  0.62342766  0.69292481     0.29100
H1031       H  0.05850309  0.55421275  0.75703629     0.19700
H1032       H  0.96812541  0.58952662  0.67635618     0.19700
C1033       C  0.51575231  0.77847442  0.03241963    -0.06100
C1034       C  0.54043676  0.77545779  0.05954600    -0.17200
C1035       C  0.53796215  0.79426112  0.09034480     0.11100
C1036       C  0.50911586  0.81544029  0.09620579    -0.06000
C1037       C  0.48438588  0.81883454  0.07022823    -0.17200
C1038       C  0.48843575  0.80286933  0.03798572     0.11100
S1039       S  0.57238987  0.78958641  0.12129197    -0.32200
S1040       S  0.45807359  0.81478480  0.00478080    -0.32200
H1041       H  0.43790904  0.83816200  0.02389456     0.29100
H1042       H  0.55329349  0.79864901  0.15093301     0.29100
H1043       H  0.56174409  0.75762053  0.05820241     0.19700
H1044       H  0.46280776  0.83608108  0.07471369     0.19700
C1045       C  0.52074814  0.77094464  0.96513067    -0.06100
C1046       C  0.53174573  0.80609083  0.96280375    -0.17200
C1047       C  0.53837114  0.82250554  0.93066310     0.11100
C1048       C  0.52543574  0.80766412  0.90010299    -0.06000
C1049       C  0.52091547  0.77124540  0.90162549    -0.17200
C1050       C  0.52155696  0.75249116  0.93330370     0.11100
S1051       S  0.57436744  0.85248479  0.92963041    -0.32200
S1052       S  0.51775999  0.70565329  0.93223127    -0.32200
H1053       H  0.52384160  0.70206954  0.89651246     0.29100
H1054       H  0.58201480  0.84788649  0.89431624     0.29100
H1055       H  0.53950545  0.81963437  0.98581608     0.19700
H1056       H  0.51564577  0.75703175  0.87844249     0.19700
C1057       C  0.40799670  0.70707355  0.02065153    -0.06100
C1058       C  0.41678729  0.71967503  0.98777114    -0.17200
C1059       C  0.44916153  0.73511287  0.97978228     0.11100
C1060       C  0.47727562  0.73432775  0.00464909    -0.06000
C1061       C  0.46714868  0.72165358  0.03814469    -0.17200
C1062       C  0.43345339  0.70934874  0.04646440     0.11100
S1063       S  0.44701425  0.76100012  0.94045821    -0.32200
S1064       S  0.42413357  0.69963350  0.09123574    -0.32200
H1065       H  0.38863123  0.70739697  0.08952748     0.29100
H1066       H  0.42765676  0.73694633  0.92135309     0.29100
H1067       H  0.39686738  0.71922339  0.96823636     0.19700
H1068       H  0.48582226  0.72225954  0.05885407     0.19700
C1069       C  0.54861763  0.72738545  0.00407378    -0.06100
C1070       C  0.58141863  0.74335313  0.99672422    -0.17200
C1071       C  0.61318882  0.72561913  0.99653060     0.11100
C1072       C  0.61520963  0.69077929  0.00858649    -0.06000
C1073       C  0.58314125  0.67519665  0.01833431    -0.17200
C1074       C  0.55043103  0.69140947  0.01372502     0.11100
S1075       S  0.64943842  0.74941398  0.97807989    -0.32200
S1076       S  0.51285849  0.66355277  0.01821680    -0.32200
H1077       H  0.52893575  0.63380323  0.03184001     0.29100
H1078       H  0.66170125  0.72120256  0.95882953     0.29100
H1079       H  0.58259048  0.77060737  0.98995126     0.19700
H1080       H  0.58295915  0.64980822  0.02983454     0.19700
C1081       C  0.78319362  0.48566246  0.03054289    -0.06100
C1082       C  0.80599760  0.51408759  0.03622300    -0.17200
C1083       C  0.82144468  0.51982665  0.06845554     0.11100
C1084       C  0.81692534  0.49539771  0.09560812    -0.06000
C1085       C  0.79958143  0.46439335  0.08852952    -0.17200
C1086       C  0.78454866  0.45809085  0.05604231     0.11100
S1087       S  0.84399412  0.56036872  0.07407561    -0.32200
S1088       S  0.77297772  0.41330124  0.04781151    -0.32200
H1089       H  0.78200332  0.39868859  0.07996198     0.29100
H1090       H  0.83337704  0.56480874  0.10864374     0.29100
H1091       H  0.80825479  0.53450364  0.01678607     0.19700
H1092       H  0.79886414  0.44448793  0.10855068     0.19700
C1093       C  0.81617002  0.50395975  0.89902620    -0.06100
C1094       C  0.81865165  0.47305619  0.91835826    -0.17200
C1095       C  0.80422064  0.46941889  0.95195658     0.11100
C1096       C  0.78116891  0.49516916  0.96529292    -0.06000
C1097       C  0.78127828  0.52713732  0.94648381    -0.17200
C1098       C  0.79788960  0.53167076  0.91416537     0.11100
S1099       S  0.81562232  0.43110024  0.97642517    -0.32200
S1100       S  0.79579548  0.57439112  0.89462627    -0.32200
H1101       H  0.82974566  0.57463087  0.88109454     0.29100
H1102       H  0.83949056  0.41711194  0.95271878     0.29100
H1103       H  0.83301297  0.45179109  0.90737697     0.19700
H1104       H  0.76926514  0.54989049  0.95701931     0.19700
C1105       C  0.69536867  0.39072922  0.99028925    -0.06100
C1106       C  0.69098014  0.41262638  0.01896944    -0.17200
C1107       C  0.70770387  0.44549004  0.02122050     0.11100
C1108       C  0.73221778  0.45659128  0.99519444    -0.06000
C1109       C  0.73284164  0.43606955  0.96488962    -0.17200
C1110       C  0.71585787  0.40381507  0.96241555     0.11100
S1111       S  0.69938473  0.47084905  0.05938295    -0.32200
S1112       S  0.72095127  0.38165475  0.92183192    -0.32200
H1113       H  0.68700720  0.36844270  0.92072008     0.29100
H1114       H  0.66968795  0.45249511  0.07089466     0.29100
H1115       H  0.67512758  0.40350639  0.04050215     0.19700
H1116       H  0.74606048  0.44502260  0.94177324     0.19700
C1117       C  0.70289153  0.59160699  0.00929150    -0.06100
C1118       C  0.69525103  0.56935912  0.98173129    -0.17200
C1119       C  0.70919679  0.53541975  0.97937008     0.11100
C1120       C  0.73325316  0.52299286  0.00458130    -0.06000
C1121       C  0.73601249  0.54392687  0.03458820    -0.17200
C1122       C  0.72236708  0.57764008  0.03676599     0.11100
S1123       S  0.69768511  0.50979681  0.94234817    -0.32200
S1124       S  0.73074195  0.60100158  0.07601231    -0.32200
H1125       H  0.70061291  0.62115738  0.07578804     0.29100
H1126       H  0.67055003  0.53090941  0.93055586     0.29100
H1127       H  0.67901718  0.57911781  0.96121481     0.19700
H1128       H  0.74874831  0.53435324  0.05743598     0.19700
loop_ 
_geom_bond_atom_site_label_1 
_geom_bond_atom_site_label_2 
_geom_bond_distance 
_geom_bond_site_symmetry_2 
_ccdc_geom_bond_type 
C1         C1081   1.593   1_556  S
C1         C1096   1.601       .  S
C1         C1108   1.595       .  S
C1         C1120   1.609   1_556  S
C2         C1033   1.591       .  S
C2         C1045   1.575   1_554  S
C2         C1060   1.613       .  S
C2         C1069   1.611       .  S
C3          C985   1.604       .  S
C3         C1000   1.600   1_455  S
C3         C1012   1.582       .  S
C3         C1021   1.604       .  S
C4          C940   1.597       .  S
C4          C952   1.587   1_545  S
C4          C964   1.592       .  S
C4          C973   1.581       .  S
C5          C889   1.620   1_565  S
C5          C901   1.589       .  S
C5          C913   1.600       .  S
C5          C925   1.582       .  S
C6          C841   1.598       .  S
C6          C853   1.579   1_455  S
C6          C868   1.606       .  S
C6          C880   1.598       .  S
C7          C793   1.591       .  S
C7          C805   1.596   1_554  S
C7          C817   1.596       .  S
C7          C829   1.599       .  S
O8           V16   1.862       .  S
O8           C18   1.260       .  A
O9           V16   1.881   1_654  S
O9           C19   1.260       .  A
O10          V16   1.853   1_554  S
O10          C20   1.256       .  A
O11          V16   1.842   1_655  S
O11          C21   1.253       .  A
O12          V17   1.921   1_655  S
O12          C21   1.268       .  A
O13          V17   1.917   1_554  S
O13          C20   1.269       .  A
O14          V17   1.892   1_654  S
O14          C19   1.262       .  A
O15          V17   1.907       .  S
O15          C18   1.262       .  A
V16          V17   2.089       .  T
C18         C757   1.457       .  S
C19         C769   1.460       .  S
C20         C745   1.475       .  S
C21         C781   1.456       .  S
N22          C26   1.359       .  A
N22          C23   1.365       .  A
N22         C784   1.435       .  S
C23        C1093   1.510       .  S
C23          C24   1.386       .  A
C24          C25   1.384       .  A
C24          H27   1.082       .  S
C25          C26   1.382       .  A
C25          H28   1.082       .  S
C26         C997   1.498       .  S
C29         C700   1.593       .  S
C29         C712   1.592   1_455  S
C29         C721   1.604       .  S
C29         C733   1.593       .  S
N30          C34   1.358       .  A
N30          C31   1.355       .  A
N30         C772   1.426       .  S
C31        C1084   1.498       .  S
C31          C32   1.382       .  A
C32          C33   1.387       .  A
C32          H35   1.082       .  S
C33          C34   1.387       .  A
C33          H36   1.082       .  S
C34         C709   1.503       .  S
N37          C41   1.370       .  A
N37          C38   1.371       .  A
N37         C760   1.445       .  S
C38         C808   1.506       .  S
C38          C39   1.382       .  A
C39          C40   1.378       .  A
C39          H42   1.082       .  S
C40          C41   1.386       .  A
C40          H43   1.082       .  S
C41         C988   1.515       .  S
O44          V52   1.911       .  S
O44          C54   1.267       .  A
O45          V52   1.895       .  S
O45          C55   1.267       .  A
O46          V52   1.892       .  S
O46          C56   1.266       .  A
O47          V52   1.892       .  S
O47          C57   1.261       .  A
O48          V53   1.858       .  S
O48          C57   1.259       .  A
O49          V53   1.846       .  S
O49          C56   1.252       .  A
O50          V53   1.853       .  S
O50          C55   1.255       .  A
O51          V53   1.838       .  S
O51          C54   1.250       .  A
V52          V53   2.072       .  T
C54         C649   1.449       .  S
C55         C673   1.452       .  S
C56         C664   1.452       .  S
C57         C685   1.443       .  S
N58          C62   1.367       .  A
N58          C59   1.356       .  A
N58         C676   1.410       .  S
C59        C1117   1.519       .  S
C59          C60   1.380       .  A
C60          C61   1.392       .  A
C60          H63   1.082       .  S
C61          C62   1.395       .  A
C61          H64   1.080       .  S
C62        C1072   1.545       .  S
C65         C601   1.596   1_556  S
C65         C613   1.599       .  S
C65         C625   1.594       .  S
C65         C637   1.615       .  S
O66          V74   1.911       .  S
O66          C76   1.267       .  A
O67          V74   1.913   1_564  S
O67          C77   1.266       .  A
O68          V74   1.906   1_565  S
O68          C78   1.268       .  A
O69          V74   1.916   1_554  S
O69          C79   1.265       .  A
O70          V75   1.859       .  S
O70          C79   1.261       .  A
O71          V75   1.882   1_566  S
O71          C78   1.259       .  A
O72          V75   1.874   1_565  S
O72          C77   1.259       .  A
O73          V75   1.862   1_556  S
O73          C76   1.258       .  A
V74          V75   2.083   1_556  T
C76         C565   1.479       .  S
C77         C577   1.460       .  S
C78         C589   1.481       .  S
C79         C553   1.468       .  S
N80          C84   1.371       .  A
N80          C81   1.377       .  A
N80         C592   1.431       .  S
C81        C1048   1.536       .  S
C81          C82   1.391       .  A
C82          C83   1.376       .  A
C82          H85   1.079       .  S
C83          C84   1.382       .  A
C83          H86   1.082       .  S
C84         C949   1.523       .  S
C87         C505   1.597       .  S
C87         C520   1.576   1_545  S
C87         C529   1.596   1_545  S
C87         C541   1.599       .  S
N88          C92   1.373       .  A
N88          C89   1.373       .  A
N88         C580   1.462       .  S
C89        C1036   1.485       .  S
C89          C90   1.378       .  A
C90          C91   1.366       .  A
C90          H93   1.082       .  S
C91          C92   1.382       .  A
C91          H94   1.083       .  S
C92         C517   1.494       .  S
N95          C99   1.351       .  A
N95          C96   1.351       .  A
N95         C568   1.423       .  S
C96         C616   1.492       .  S
C96          C97   1.384       .  A
C97          C98   1.390       .  A
C97         H100   1.082       .  S
C98          C99   1.385       .  A
C98         H101   1.082       .  S
C99         C937   1.492       .  S
O102        V110   1.914       .  S
O102        C112   1.266       .  A
O103        V110   1.908       .  S
O103        C113   1.270       .  A
O104        V110   1.906       .  S
O104        C114   1.264       .  A
O105        V110   1.912       .  S
O105        C115   1.264       .  A
O106        V111   1.855       .  S
O106        C115   1.259       .  A
O107        V111   1.858       .  S
O107        C114   1.258       .  A
O108        V111   1.842       .  S
O108        C113   1.249       .  A
O109        V111   1.846       .  S
O109        C112   1.255       .  A
V110        V111   2.081       .  T
C112        C481   1.451       .  S
C113        C469   1.459       .  S
C114        C493   1.451       .  S
C115        C460   1.453       .  S
N116        C120   1.364       .  A
N116        C117   1.366       .  A
N116        C484   1.427   1_455  S
C117       C1024   1.517       .  S
C117        C118   1.385       .  A
C118        C119   1.381       .  A
C118        H121   1.081       .  S
C119        C120   1.387       .  A
C119        H122   1.082       .  S
C120        C877   1.519       .  S
O123        V131   1.847       .  S
O123        C133   1.254       .  A
O124        V131   1.860       .  S
O124        C134   1.258       .  A
O125        V131   1.876       .  S
O125        C135   1.261       .  A
O126        V131   1.886       .  S
O126        C136   1.263       .  A
O127        V132   1.897       .  S
O127        C136   1.264       .  A
O128        V132   1.912       .  S
O128        C135   1.265       .  A
O129        V132   1.923       .  S
O129        C134   1.270       .  A
O130        V132   1.927       .  S
O130        C133   1.271       .  A
V131        V132   2.076       .  T
C133        C409   1.464       .  S
C134        C436   1.486       .  S
C135        C421   1.463       .  S
C136        C448   1.475       .  S
N137        C141   1.366       .  A
N137        C138   1.366       .  A
N137        C433   1.437   1_545  S
C138        C976   1.512       .  S
C138        C139   1.388       .  A
C139        C140   1.378       .  A
C139        H142   1.082       .  S
C140        C141   1.381       .  A
C140        H143   1.082       .  S
C141        C928   1.505       .  S
C144        C361   1.591       .  S
C144        C376   1.591   1_545  S
C144        C385   1.590       .  S
C144        C397   1.588       .  S
O145        V153   1.901   1_455  S
O145        C155   1.264       .  A
O146        V153   1.900   1_565  S
O146        C156   1.263       .  A
O147        V153   1.906       .  S
O147        C157   1.267       .  A
O148        V153   1.904   1_465  S
O148        C158   1.266       .  A
O149        V154   1.841   1_465  S
O149        C158   1.254       .  A
O150        V154   1.841       .  S
O150        C157   1.252       .  A
O151        V154   1.847   1_565  S
O151        C156   1.257       .  A
O152        V154   1.851   1_455  S
O152        C155   1.256       .  A
V153        V154   2.086       .  T
C155        C313   1.455       .  S
C156        C349   1.451       .  S
C157        C340   1.451       .  S
C158        C325   1.458       .  S
N159        C163   1.367       .  A
N159        C160   1.363       .  A
N159        C352   1.420       .  S
C160        C904   1.518       .  S
C160        C161   1.382       .  A
C161        C162   1.385       .  A
C161        H164   1.082       .  S
C162        C163   1.391       .  A
C162        H165   1.082       .  S
C163        C856   1.530       .  S
C166        C265   1.586   1_655  S
C166        C277   1.596       .  S
C166        C289   1.595       .  S
C166        C301   1.599       .  S
N167        C171   1.364       .  A
N167        C168   1.362       .  A
N167        C337   1.427       .  S
C168        C892   1.509       .  S
C168        C169   1.385       .  A
C169        C170   1.389       .  A
C169        H172   1.082       .  S
C170        C171   1.384       .  A
C170        H173   1.082       .  S
C171        C280   1.516       .  S
N174        C178   1.357       .  A
N174        C175   1.355       .  A
N174        C328   1.420       .  S
C175        C844   1.512       .  S
C175        C176   1.386       .  A
C176        C177   1.391       .  A
C176        H179   1.082       .  S
C177        C178   1.387       .  A
C177        H180   1.082       .  S
C178        C373   1.512       .  S
N181        C185   1.354       .  A
N181        C182   1.352       .  A
N181        C445   1.428       .  S
C182        C961   1.485       .  S
C182        C183   1.381       .  A
C183        C184   1.384       .  A
C183        H186   1.082       .  S
C184        C185   1.386       .  A
C184        H187   1.082       .  S
C185        C388   1.493       .  S
N188        C192   1.365       .  A
N188        C189   1.371       .  A
N188        C496   1.425   1_455  S
C189       C1009   1.535       .  S
C189        C190   1.392       .  A
C190        C191   1.382       .  A
C190        H193   1.081       .  S
C191        C192   1.381       .  A
C191        H194   1.082       .  S
C192        C292   1.518       .  S
N195        C199   1.357       .  A
N195        C196   1.355       .  A
N195        C316   1.426       .  S
C196        C268   1.494       .  S
C196        C197   1.385       .  A
C197        C198   1.387       .  A
C197        H200   1.082       .  S
C198        C199   1.382       .  A
C198        H201   1.082       .  S
C199        C364   1.498       .  S
N202        C206   1.369   1_565  A
N202        C203   1.372   1_565  A
N202        C424   1.452       .  S
C203        C544   1.505       .  S
C203        C204   1.384       .  A
C204        C205   1.374       .  A
C204        H207   1.082       .  S
C205        C206   1.380       .  A
C205        H208   1.082       .  S
C206        C916   1.497       .  S
N209        C213   1.368       .  A
N209        C210   1.370       .  A
N209        C457   1.440   1_455  S
C210        C736   1.517       .  S
C210        C211   1.389       .  A
C211        C212   1.382       .  A
C211        H214   1.082       .  S
C212        C213   1.379       .  A
C212        H215   1.082       .  S
C213        C865   1.508       .  S
N216        C220   1.363       .  A
N216        C217   1.359       .  A
N216        C688   1.416   1_556  S
C217       C1105   1.524       .  S
C217        C218   1.386       .  A
C218        C219   1.392       .  A
C218        H221   1.081       .  S
C219        C220   1.389       .  A
C219        H222   1.081       .  S
C220        C628   1.531       .  S
N223        C227   1.370       .  A
N223        C224   1.368       .  A
N223        C556   1.450       .  S
C224        C604   1.500       .  S
C224        C225   1.383       .  A
C225        C226   1.373       .  A
C225        H228   1.082       .  S
C226        C227   1.380       .  A
C226        H229   1.082       .  S
C227        C508   1.494       .  S
N230        C234   1.359       .  A
N230        C231   1.357       .  A
N230        C661   1.411       .  S
C231       C1057   1.514       .  S
C231        C232   1.388       .  A
C232        C233   1.389       .  A
C232        H235   1.082       .  S
C233        C234   1.385       .  A
C233        H236   1.082   1_554  S
C234        C820   1.518       .  S
N237        C241   1.363       .  A
N237        C238   1.361       .  A
N237        C748   1.429       .  S
C238        C796   1.506       .  S
C238        C239   1.382       .  A
C239        C240   1.382       .  A
C239        H242   1.082       .  S
C240        C241   1.389       .  A
C240        H243   1.081       .  S
C241        C697   1.514       .  S
N244        C248   1.351       .  A
N244        C245   1.355       .  A
N244        C472   1.415       .  S
C245        C724   1.516       .  S
C245        C246   1.389       .  A
C246        C247   1.393       .  A
C246        H249   1.081       .  S
C247        C248   1.384       .  A
C247        H250   1.082       .  S
C248        C304   1.501       .  S
N251        C255   1.360   1_565  A
N251        C252   1.357   1_565  A
N251        C412   1.436       .  S
C252        C532   1.487       .  S
C252        C253   1.383       .  A
C253        C254   1.380       .  A
C253        H256   1.082       .  S
C254        C255   1.382       .  A
C254        H257   1.082       .  S
C255        C400   1.490       .  S
N258        C262   1.357       .  A
N258        C259   1.360       .  A
N258        C652   1.417       .  S
C259        C640   1.511       .  S
C259        C260   1.384   1_554  A
C260        C261   1.389       .  A
C260        H263   1.082       .  S
C261        C262   1.384   1_556  A
C261        H264   1.082       .  S
C262        C832   1.506       .  S
C265        C266   1.419       .  A
C265        C270   1.428       .  A
C266        C267   1.411       .  A
C266        H275   1.079       .  S
C267        C268   1.408       .  A
C267        S271   1.803       .  S
C268        C269   1.399       .  A
C269        C270   1.409       .  A
C269        H276   1.081       .  S
C270        S272   1.809       .  S
S271        H274   1.407       .  S
S272        H273   1.406       .  S
C277        C278   1.418       .  A
C277        C282   1.438       .  A
C278        C279   1.404       .  A
C278        H287   1.081       .  S
C279        C280   1.411       .  A
C279        S283   1.799       .  S
C280        C281   1.405       .  A
C281        C282   1.419       .  A
C281        H288   1.082       .  S
C282        S284   1.810       .  S
S283        H286   1.406       .  S
S284        H285   1.406       .  S
C289        C290   1.423   1_655  A
C289        C294   1.431       .  A
C290        C291   1.401       .  A
C290        H299   1.076       .  S
C291        C292   1.413       .  A
C291        S295   1.808       .  S
C292        C293   1.411   1_455  A
C293        C294   1.422       .  A
C293        H300   1.081       .  S
C294        S296   1.805       .  S
S295        H298   1.402       .  S
S296        H297   1.407       .  S
C301        C302   1.423       .  A
C301        C306   1.436   1_655  A
C302        C303   1.405       .  A
C302        H311   1.078       .  S
C303        C304   1.409       .  A
C303        S307   1.807       .  S
C304        C305   1.404   1_655  A
C305        C306   1.418       .  A
C305        H312   1.083       .  S
C306        S308   1.806       .  S
S307        H310   1.401       .  S
S308        H309   1.406       .  S
C313        C314   1.403       .  A
C313        C318   1.407       .  A
C314        C315   1.399       .  A
C314        H323   1.084       .  S
C315        C316   1.412       .  A
C315        S319   1.801       .  S
C316        C317   1.395       .  A
C317        C318   1.375       .  A
C317        H324   1.079       .  S
C318        S320   1.808       .  S
S319        H322   1.404       .  S
S320        H321   1.409       .  S
C325        C326   1.407       .  A
C325        C330   1.407       .  A
C326        C327   1.381       .  A
C326        H335   1.085       .  S
C327        C328   1.403       .  A
C327        S331   1.803       .  S
C328        C329   1.402       .  A
C329        C330   1.394       .  A
C329        H336   1.082       .  S
C330        S332   1.806       .  S
S331        H334   1.401       .  S
S332        H333   1.407       .  S
C337        C338   1.397       .  A
C337        C342   1.414       .  A
C338        C339   1.382       .  A
C338        H347   1.082       .  S
C339        C340   1.410       .  A
C339        S343   1.812       .  S
C340        C341   1.397       .  A
C341        C342   1.393       .  A
C341        H348   1.084       .  S
C342        S344   1.795       .  S
S343        H346   1.408       .  S
S344        H345   1.403       .  S
C349        C350   1.401       .  A
C349        C354   1.410       .  A
C350        C351   1.378       .  A
C350        H359   1.085       .  S
C351        C352   1.409       .  A
C351        S355   1.808       .  S
C352        C353   1.401       .  A
C353        C354   1.397       .  A
C353        H360   1.082       .  S
C354        S356   1.806       .  S
S355        H358   1.403       .  S
S356        H357   1.407       .  S
C361        C362   1.422       .  A
C361        C366   1.432       .  A
C362        C363   1.402       .  A
C362        H371   1.078       .  S
C363        C364   1.405       .  A
C363        S367   1.803       .  S
C364        C365   1.403       .  A
C365        C366   1.412       .  A
C365        H372   1.082       .  S
C366        S368   1.809       .  S
S367        H370   1.406       .  S
S368        H369   1.406       .  S
C373        C374   1.402       .  A
C373        C378   1.415       .  A
C374        C375   1.407       .  A
C374        H383   1.071       .  S
C375        C376   1.430       .  A
C375        S379   1.806   1_565  S
C376        C377   1.420       .  A
C377        C378   1.409       .  A
C377        H384   1.079       .  S
C378        S380   1.804       .  S
S379        H382   1.408   1_545  S
S380        H381   1.403       .  S
C385        C386   1.422       .  A
C385        C390   1.433       .  A
C386        C387   1.400       .  A
C386        H395   1.075       .  S
C387        C388   1.403       .  A
C387        S391   1.809       .  S
C388        C389   1.403       .  A
C389        C390   1.412       .  A
C389        H396   1.081   1_545  S
C390        S392   1.808   1_545  S
S391        H394   1.407       .  S
S392        H393   1.407       .  S
C397        C398   1.424   1_545  A
C397        C402   1.433       .  A
C398        C399   1.401       .  A
C398        H407   1.077       .  S
C399        C400   1.403   1_565  A
C399        S403   1.803       .  S
C400        C401   1.400       .  A
C401        C402   1.407       .  A
C401        H408   1.083       .  S
C402        S404   1.809       .  S
S403        H406   1.406       .  S
S404        H405   1.406       .  S
C409        C410   1.401       .  A
C409        C414   1.410       .  A
C410        C411   1.408       .  A
C410        H419   1.083       .  S
C411        C412   1.419       .  A
C411        S415   1.800       .  S
C412        C413   1.392       .  A
C413        C414   1.377       .  A
C413        H420   1.079   1_565  S
C414        S416   1.802   1_565  S
S415        H418   1.404       .  S
S416        H417   1.406   1_545  S
C421        C422   1.396       .  A
C421        C426   1.405       .  A
C422        C423   1.390       .  A
C422        H431   1.086       .  S
C423        C424   1.419       .  A
C423        S427   1.800   1_565  S
C424        C425   1.413       .  A
C425        C426   1.407       .  A
C425        H432   1.082       .  S
C426        S428   1.796       .  S
S427        H430   1.402       .  S
S428        H429   1.408       .  S
C433        C434   1.405       .  A
C433        C438   1.408   1_565  A
C434        C435   1.410       .  A
C434        H443   1.082       .  S
C435        C436   1.417       .  A
C435        S439   1.805       .  S
C436        C437   1.408       .  A
C437        C438   1.382   1_565  A
C437        H444   1.082   1_565  S
C438        S440   1.806       .  S
S439        H442   1.407       .  S
S440        H441   1.405       .  S
C445        C446   1.399   1_545  A
C445        C450   1.407       .  A
C446        C447   1.394       .  A
C446        H455   1.083       .  S
C447        C448   1.415       .  A
C447        S451   1.801       .  S
C448        C449   1.406   1_565  A
C449        C450   1.392       .  A
C449        H456   1.084       .  S
C450        S452   1.805       .  S
S451        H454   1.407       .  S
S452        H453   1.401       .  S
C457        C458   1.399   1_655  A
C457        C462   1.417       .  A
C458        C459   1.372   1_455  A
C458        H467   1.075       .  S
C459        C460   1.400       .  A
C459        S463   1.800       .  S
C460        C461   1.404       .  A
C461        C462   1.408       .  A
C461        H468   1.083       .  S
C462        S464   1.797       .  S
S463        H466   1.404       .  S
S464        H465   1.406       .  S
C469        C470   1.400       .  A
C469        C474   1.423       .  A
C470        C471   1.389       .  A
C470        H479   1.084       .  S
C471        C472   1.406       .  A
C471        S475   1.800       .  S
C472        C473   1.389       .  A
C473        C474   1.385       .  A
C473        H480   1.083   1_655  S
C474        S476   1.814   1_655  S
S475        H478   1.405       .  S
S476        H477   1.407       .  S
C481        C482   1.402       .  A
C481        C486   1.402       .  A
C482        C483   1.382   1_655  A
C482        H491   1.086   1_655  S
C483        C484   1.410   1_455  A
C483        S487   1.809       .  S
C484        C485   1.407       .  A
C485        C486   1.400       .  A
C485        H492   1.082       .  S
C486        S488   1.804       .  S
S487        H490   1.402       .  S
S488        H489   1.407       .  S
C493        C494   1.398       .  A
C493        C498   1.406       .  A
C494        C495   1.380   1_655  A
C494        H503   1.086   1_655  S
C495        C496   1.411   1_455  A
C495        S499   1.805       .  S
C496        C497   1.404       .  A
C497        C498   1.402       .  A
C497        H504   1.082       .  S
C498        S500   1.804       .  S
S499        H502   1.401       .  S
S500        H501   1.407       .  S
C505        C506   1.427       .  A
C505        C510   1.439       .  A
C506        C507   1.408       .  A
C506        H515   1.075       .  S
C507        C508   1.405       .  A
C507        S511   1.804       .  S
C508        C509   1.397       .  A
C509        C510   1.405       .  A
C509        H516   1.083       .  S
C510        S512   1.810       .  S
S511        H514   1.405       .  S
S512        H513   1.407       .  S
C517        C518   1.401       .  A
C517        C522   1.410       .  A
C518        C519   1.404       .  A
C518        H527   1.083       .  S
C519        C520   1.434       .  A
C519        S523   1.809       .  S
C520        C521   1.424       .  A
C521        C522   1.408       .  A
C521        H528   1.076       .  S
C522        S524   1.804       .  S
S523        H526   1.407       .  S
S524        H525   1.404       .  S
C529        C530   1.425   1_565  A
C529        C534   1.451       .  A
C530        C531   1.406       .  A
C530        H539   1.082       .  S
C531        C532   1.401       .  A
C531        S535   1.806       .  S
C532        C533   1.388   1_545  A
C533        C534   1.406       .  A
C533        H540   1.082       .  S
C534        S536   1.809       .  S
S535        H538   1.407       .  S
S536        H537   1.408       .  S
C541        C542   1.428       .  A
C541        C546   1.443       .  A
C542        C543   1.405       .  A
C542        H551   1.073       .  S
C543        C544   1.407       .  A
C543        S547   1.800       .  S
C544        C545   1.402       .  A
C545        C546   1.408       .  A
C545        H552   1.084   1_545  S
C546        S548   1.813   1_545  S
S547        H550   1.406       .  S
S548        H549   1.394   1_565  S
C553        C554   1.399       .  A
C553        C558   1.408       .  A
C554        C555   1.388       .  A
C554        H563   1.087       .  S
C555        C556   1.415       .  A
C555        S559   1.802       .  S
C556        C557   1.414       .  A
C557        C558   1.406       .  A
C557        H564   1.081       .  S
C558        S560   1.799       .  S
S559        H562   1.402       .  S
S560        H561   1.406       .  S
C565        C566   1.409       .  A
C565        C570   1.415       .  A
C566        C567   1.384       .  A
C566        H575   1.083       .  S
C567        C568   1.402       .  A
C567        S571   1.805       .  S
C568        C569   1.401       .  A
C569        C570   1.400       .  A
C569        H576   1.083       .  S
C570        S572   1.799       .  S
S571        H574   1.399       .  S
S572        H573   1.408       .  S
C577        C578   1.404       .  A
C577        C582   1.396       .  A
C578        C579   1.408       .  A
C578        H587   1.083       .  S
C579        C580   1.422       .  A
C579        S583   1.799       .  S
C580        C581   1.410       .  A
C581        C582   1.385       .  A
C581        H588   1.059       .  S
C582        S584   1.800       .  S
S583        H586   1.407       .  S
S584        H585   1.406       .  S
C589        C590   1.406       .  A
C589        C594   1.421       .  A
C590        C591   1.396       .  A
C590        H599   1.083       .  S
C591        C592   1.410       .  A
C591        S595   1.803       .  S
C592        C593   1.400       .  A
C593        C594   1.398       .  A
C593        H600   1.083       .  S
C594        S596   1.810       .  S
S595        H598   1.405       .  S
S596        H597   1.407       .  S
C601        C602   1.423       .  A
C601        C606   1.439       .  A
C602        C603   1.408       .  A
C602        H611   1.077       .  S
C603        C604   1.411       .  A
C603        S607   1.799       .  S
C604        C605   1.398       .  A
C605        C606   1.406       .  A
C605        H612   1.083       .  S
C606        S608   1.813       .  S
S607        H610   1.405       .  S
S608        H609   1.406       .  S
C613        C614   1.426       .  A
C613        C618   1.450       .  A
C614        C615   1.403       .  A
C614        H623   1.083       .  S
C615        C616   1.405       .  A
C615        S619   1.802       .  S
C616        C617   1.393       .  A
C617        C618   1.410       .  A
C617        H624   1.083       .  S
C618        S620   1.811       .  S
S619        H622   1.403       .  S
S620        H621   1.407       .  S
C625        C626   1.428   1_556  A
C625        C630   1.433       .  A
C626        C627   1.410       .  A
C626        H635   1.083       .  S
C627        C628   1.416   1_554  A
C627        S631   1.801       .  S
C628        C629   1.411       .  A
C629        C630   1.416       .  A
C629        H636   1.075       .  S
C630        S632   1.805       .  S
S631        H634   1.407       .  S
S632        H633   1.406       .  S
C637        C638   1.432   1_556  A
C637        C642   1.448       .  A
C638        C639   1.407       .  A
C638        H647   1.070       .  S
C639        C640   1.403       .  A
C639        S643   1.805       .  S
C640        C641   1.402   1_554  A
C641        C642   1.415       .  A
C641        H648   1.084       .  S
C642        S644   1.808       .  S
S643        H646   1.405       .  S
S644        H645   1.391       .  S
C649        C650   1.401       .  A
C649        C654   1.417       .  A
C650        C651   1.398       .  A
C650        H659   1.084       .  S
C651        C652   1.411       .  A
C651        S655   1.800       .  S
C652        C653   1.386       .  A
C653        C654   1.370       .  A
C653        H660   1.082   1_554  S
C654        S656   1.816   1_554  S
S655        H658   1.403       .  S
S656        H657   1.408       .  S
C661        C662   1.389       .  A
C661        C666   1.407       .  A
C662        C663   1.376       .  A
C662        H671   1.084   1_554  S
C663        C664   1.418       .  A
C663        S667   1.809   1_554  S
C664        C665   1.402       .  A
C665        C666   1.388       .  A
C665        H672   1.084       .  S
C666        S668   1.808       .  S
S667        H670   1.407       .  S
S668        H669   1.403       .  S
C673        C674   1.410   1_554  A
C673        C678   1.406       .  A
C674        C675   1.384       .  A
C674        H683   1.084       .  S
C675        C676   1.398   1_556  A
C675        S679   1.805       .  S
C676        C677   1.400       .  A
C677        C678   1.383       .  A
C677        H684   1.082       .  S
C678        S680   1.802       .  S
S679        H682   1.404       .  S
S680        H681   1.408       .  S
C685        C686   1.400   1_554  A
C685        C690   1.407       .  A
C686        C687   1.373       .  A
C686        H695   1.085       .  S
C687        C688   1.403   1_556  A
C687        S691   1.801       .  S
C688        C689   1.403       .  A
C689        C690   1.394       .  A
C689        H696   1.083       .  S
C690        S692   1.801       .  S
S691        H694   1.406       .  S
S692        H693   1.406       .  S
C697        C698   1.405       .  A
C697        C702   1.412       .  A
C698        C699   1.413       .  A
C698        H707   1.077       .  S
C699        C700   1.439       .  A
C699        S703   1.808       .  S
C700        C701   1.423       .  A
C701        C702   1.401       .  A
C701        H708   1.083       .  S
C702        S704   1.803       .  S
S703        H706   1.409       .  S
S704        H705   1.407       .  S
C709        C710   1.397       .  A
C709        C714   1.409       .  A
C710        C711   1.410       .  A
C710        H719   1.083       .  S
C711        C712   1.445       .  A
C711        S715   1.808       .  S
C712        C713   1.426       .  A
C713        C714   1.406       .  A
C713        H720   1.082       .  S
C714        S716   1.802       .  S
S715        H718   1.407       .  S
S716        H717   1.406       .  S
C721        C722   1.429       .  A
C721        C726   1.433   1_455  A
C722        C723   1.405       .  A
C722        H731   1.076       .  S
C723        C724   1.409   1_455  A
C723        S727   1.803       .  S
C724        C725   1.405       .  A
C725        C726   1.413       .  A
C725        H732   1.079       .  S
C726        S728   1.804       .  S
S727        H730   1.407       .  S
S728        H729   1.408       .  S
C733        C734   1.423       .  A
C733        C738   1.438       .  A
C734        C735   1.421       .  A
C734        H743   1.079       .  S
C735        C736   1.414       .  A
C735        S739   1.800       .  S
C736        C737   1.400       .  A
C737        C738   1.408       .  A
C737        H744   1.083       .  S
C738        S740   1.807       .  S
S739        H742   1.406       .  S
S740        H741   1.407       .  S
C745        C746   1.408       .  A
C745        C750   1.415       .  A
C746        C747   1.381       .  A
C746        H755   1.084       .  S
C747        C748   1.404       .  A
C747        S751   1.805       .  S
C748        C749   1.403       .  A
C749        C750   1.401       .  A
C749        H756   1.083       .  S
C750        S752   1.798       .  S
S751        H754   1.405       .  S
S752        H753   1.408       .  S
C757        C758   1.398       .  A
C757        C762   1.406       .  A
C758        C759   1.387       .  A
C758        H767   1.087       .  S
C759        C760   1.417       .  A
C759        S763   1.804       .  S
C760        C761   1.411       .  A
C761        C762   1.402       .  A
C761        H768   1.082       .  S
C762        S764   1.800       .  S
S763        H766   1.402       .  S
S764        H765   1.406       .  S
C769        C770   1.404       .  A
C769        C774   1.409       .  A
C770        C771   1.392       .  A
C770        H779   1.084       .  S
C771        C772   1.409       .  A
C771        S775   1.805       .  S
C772        C773   1.401       .  A
C773        C774   1.390       .  A
C773        H780   1.083       .  S
C774        S776   1.803       .  S
S775        H778   1.401       .  S
S776        H777   1.408       .  S
C781        C782   1.404       .  A
C781        C786   1.406       .  A
C782        C783   1.385       .  A
C782        H791   1.086       .  S
C783        C784   1.408       .  A
C783        S787   1.805       .  S
C784        C785   1.409       .  A
C785        C786   1.401       .  A
C785        H792   1.082       .  S
C786        S788   1.800       .  S
S787        H790   1.402       .  S
S788        H789   1.405       .  S
C793        C794   1.414       .  A
C793        C798   1.435       .  A
C794        C795   1.405       .  A
C794        H803   1.077       .  S
C795        C796   1.414       .  A
C795        S799   1.801       .  S
C796        C797   1.402       .  A
C797        C798   1.408       .  A
C797        H804   1.083       .  S
C798        S800   1.809       .  S
S799        H802   1.406       .  S
S800        H801   1.407       .  S
C805        C806   1.418       .  A
C805        C810   1.443       .  A
C806        C807   1.403       .  A
C806        H815   1.075       .  S
C807        C808   1.414       .  A
C807        S811   1.807       .  S
C808        C809   1.399       .  A
C809        C810   1.414       .  A
C809        H816   1.083       .  S
C810        S812   1.808       .  S
S811        H814   1.403       .  S
S812        H813   1.408       .  S
C817        C818   1.422   1_554  A
C817        C822   1.433       .  A
C818        C819   1.411       .  A
C818        H827   1.079       .  S
C819        C820   1.414   1_556  A
C819        S823   1.803       .  S
C820        C821   1.403       .  A
C821        C822   1.416       .  A
C821        H828   1.073       .  S
C822        S824   1.807       .  S
S823        H826   1.407       .  S
S824        H825   1.406       .  S
C829        C830   1.424       .  A
C829        C834   1.433   1_554  A
C830        C831   1.404       .  A
C830        H839   1.076       .  S
C831        C832   1.405       .  A
C831        S835   1.803       .  S
C832        C833   1.407   1_554  A
C833        C834   1.422       .  A
C833        H840   1.082       .  S
C834        S836   1.804       .  S
S835        H838   1.405       .  S
S836        H837   1.406       .  S
C841        C842   1.431       .  A
C841        C846   1.431       .  A
C842        C843   1.401       .  A
C842        H851   1.075       .  S
C843        C844   1.406       .  A
C843        S847   1.804       .  S
C844        C845   1.406       .  A
C845        C846   1.413       .  A
C845        H852   1.078       .  S
C846        S848   1.804       .  S
S847        H850   1.406       .  S
S848        H849   1.407       .  S
C853        C854   1.416       .  A
C853        C858   1.435       .  A
C854        C855   1.415       .  A
C854        H863   1.081       .  S
C855        C856   1.425       .  A
C855        S859   1.797       .  S
C856        C857   1.406       .  A
C857        C858   1.409       .  A
C857        H864   1.081       .  S
C858        S860   1.813       .  S
S859        H862   1.405       .  S
S860        H861   1.407       .  S
C865        C866   1.393       .  A
C865        C870   1.411       .  A
C866        C867   1.414   1_455  A
C866        H875   1.082   1_455  S
C867        C868   1.456   1_655  A
C867        S871   1.818       .  S
C868        C869   1.423       .  A
C869        C870   1.408       .  A
C869        H876   1.083       .  S
C870        S872   1.804       .  S
S871        H874   1.406       .  S
S872        H873   1.405       .  S
C877        C878   1.398       .  A
C877        C882   1.419       .  A
C878        C879   1.405       .  A
C878        H887   1.082       .  S
C879        C880   1.443       .  A
C879        S883   1.811       .  S
C880        C881   1.417       .  A
C881        C882   1.415       .  A
C881        H888   1.074       .  S
C882        S884   1.796       .  S
S883        H886   1.407       .  S
S884        H885   1.405       .  S
C889        C890   1.423       .  A
C889        C894   1.435       .  A
C890        C891   1.404       .  A
C890        H899   1.078       .  S
C891        C892   1.410       .  A
C891        S895   1.807       .  S
C892        C893   1.406       .  A
C893        C894   1.424       .  A
C893        H900   1.083       .  S
C894        S896   1.796       .  S
S895        H898   1.402       .  S
S896        H897   1.407       .  S
C901        C902   1.418       .  A
C901        C906   1.452       .  A
C902        C903   1.414       .  A
C902        H911   1.084       .  S
C903        C904   1.417       .  A
C903        S907   1.802       .  S
C904        C905   1.396       .  A
C905        C906   1.407       .  A
C905        H912   1.085       .  S
C906        S908   1.814       .  S
S907        H910   1.406       .  S
S908        H909   1.392       .  S
C913        C914   1.423   1_565  A
C913        C918   1.446       .  A
C914        C915   1.401       .  A
C914        H923   1.081       .  S
C915        C916   1.407       .  A
C915        S919   1.811       .  S
C916        C917   1.398   1_545  A
C917        C918   1.417       .  A
C917        H924   1.082       .  S
C918        S920   1.811       .  S
S919        H922   1.406       .  S
S920        H921   1.406       .  S
C925        C926   1.420   1_565  A
C925        C930   1.435       .  A
C926        C927   1.405       .  A
C926        H935   1.076       .  S
C927        C928   1.414       .  A
C927        S931   1.805       .  S
C928        C929   1.398   1_545  A
C929        C930   1.405       .  A
C929        H936   1.081       .  S
C930        S932   1.801       .  S
S931        H934   1.404       .  S
S932        H933   1.408       .  S
C937        C938   1.393       .  A
C937        C942   1.406       .  A
C938        C939   1.411       .  A
C938        H947   1.084       .  S
C939        C940   1.449       .  A
C939        S943   1.810       .  S
C940        C941   1.423       .  A
C941        C942   1.402       .  A
C941        H948   1.083       .  S
C942        S944   1.801       .  S
S943        H946   1.407       .  S
S944        H945   1.404       .  S
C949        C950   1.408       .  A
C949        C954   1.415       .  A
C950        C951   1.411       .  A
C950        H959   1.081       .  S
C951        C952   1.435       .  A
C951        S955   1.814       .  S
C952        C953   1.421       .  A
C953        C954   1.412       .  A
C953        H960   1.072       .  S
C954        S956   1.803       .  S
S955        H958   1.406       .  S
S956        H957   1.407       .  S
C961        C962   1.393   1_545  A
C961        C966   1.399       .  A
C962        C963   1.410       .  A
C962        H971   1.083       .  S
C963        C964   1.446   1_565  A
C963        S967   1.812       .  S
C964        C965   1.425       .  A
C965        C966   1.401       .  A
C965        H972   1.081       .  S
C966        S968   1.805       .  S
S967        H970   1.406       .  S
S968        H969   1.407       .  S
C973        C974   1.420       .  A
C973        C978   1.433   1_545  A
C974        C975   1.405       .  A
C974        H983   1.073       .  S
C975        C976   1.414       .  A
C975        S979   1.803       .  S
C976        C977   1.407   1_545  A
C977        C978   1.409       .  A
C977        H984   1.082       .  S
C978        S980   1.811       .  S
S979        H982   1.408       .  S
S980        H981   1.406       .  S
C985        C986   1.422       .  A
C985        C990   1.441       .  A
C986        C987   1.412       .  A
C986        H995   1.076       .  S
C987        C988   1.415       .  A
C987        S991   1.799       .  S
C988        C989   1.401       .  A
C989        C990   1.410       .  A
C989        H996   1.082       .  S
C990        S992   1.810       .  S
S991        H994   1.405       .  S
S992        H993   1.406       .  S
C997        C998   1.393       .  A
C997       C1002   1.408       .  A
C998        C999   1.410       .  A
C998       H1007   1.084       .  S
C999       C1000   1.453       .  A
C999       S1003   1.814       .  S
C1000      C1001   1.422       .  A
C1001      C1002   1.408       .  A
C1001      H1008   1.083       .  S
C1002      S1004   1.801       .  S
S1003      H1006   1.408       .  S
S1004      H1005   1.405       .  S
C1009      C1010   1.410       .  A
C1009      C1014   1.424       .  A
C1010      C1011   1.411       .  A
C1010      H1019   1.080       .  S
C1011      C1012   1.432       .  A
C1011      S1015   1.811       .  S
C1012      C1013   1.419       .  A
C1013      C1014   1.416       .  A
C1013      H1020   1.080       .  S
C1014      S1016   1.796       .  S
S1015      H1018   1.407       .  S
S1016      H1017   1.404       .  S
C1021      C1022   1.427       .  A
C1021      C1026   1.435   1_455  A
C1022      C1023   1.401       .  A
C1022      H1031   1.074       .  S
C1023      C1024   1.411       .  A
C1023      S1027   1.805       .  S
C1024      C1025   1.406   1_455  A
C1025      C1026   1.417       .  A
C1025      H1032   1.081       .  S
C1026      S1028   1.801       .  S
S1027      H1030   1.406       .  S
S1028      H1029   1.408       .  S
C1033      C1034   1.428       .  A
C1033      C1038   1.433       .  A
C1034      C1035   1.404       .  A
C1034      H1043   1.076       .  S
C1035      C1036   1.403       .  A
C1035      S1039   1.806       .  S
C1036      C1037   1.398       .  A
C1037      C1038   1.405       .  A
C1037      H1044   1.083       .  S
C1038      S1040   1.804       .  S
S1039      H1042   1.404       .  S
S1040      H1041   1.406       .  S
C1045      C1046   1.418       .  A
C1045      C1050   1.429       .  A
C1046      C1047   1.407       .  A
C1046      H1055   1.081       .  S
C1047      C1048   1.414       .  A
C1047      S1051   1.800       .  S
C1048      C1049   1.413       .  A
C1049      C1050   1.414       .  A
C1049      H1056   1.077       .  S
C1050      S1052   1.811       .  S
S1051      H1054   1.407       .  S
S1052      H1053   1.406       .  S
C1057      C1058   1.392   1_554  A
C1057      C1062   1.411       .  A
C1058      C1059   1.409       .  A
C1058      H1067   1.084       .  S
C1059      C1060   1.457   1_556  A
C1059      S1063   1.810       .  S
C1060      C1061   1.427       .  A
C1061      C1062   1.413       .  A
C1061      H1068   1.083       .  S
C1062      S1064   1.797       .  S
S1063      H1066   1.408       .  S
S1064      H1065   1.406       .  S
C1069      C1070   1.427   1_554  A
C1069      C1074   1.433       .  A
C1070      C1071   1.407       .  A
C1070      H1079   1.080       .  S
C1071      C1072   1.418   1_556  A
C1071      S1075   1.802       .  S
C1072      C1073   1.416       .  A
C1073      C1074   1.424       .  A
C1073      H1080   1.069       .  S
C1074      S1076   1.803       .  S
S1075      H1078   1.407       .  S
S1076      H1077   1.406       .  S
C1081      C1082   1.421       .  A
C1081      C1086   1.441       .  A
C1082      C1083   1.406       .  A
C1082      H1091   1.083       .  S
C1083      C1084   1.409       .  A
C1083      S1087   1.800       .  S
C1084      C1085   1.397       .  A
C1085      C1086   1.412       .  A
C1085      H1092   1.082       .  S
C1086      S1088   1.813       .  S
S1087      H1090   1.406       .  S
S1088      H1089   1.406       .  S
C1093      C1094   1.402       .  A
C1093      C1098   1.413       .  A
C1094      C1095   1.412       .  A
C1094      H1103   1.081       .  S
C1095      C1096   1.434       .  A
C1095      S1099   1.803       .  S
C1096      C1097   1.422       .  A
C1097      C1098   1.406       .  A
C1097      H1104   1.077       .  S
C1098      S1100   1.805       .  S
S1099      H1102   1.407       .  S
S1100      H1101   1.405       .  S
C1105      C1106   1.411   1_556  A
C1105      C1110   1.414       .  A
C1106      C1107   1.421       .  A
C1106      H1115   1.081       .  S
C1107      C1108   1.432   1_554  A
C1107      S1111   1.807       .  S
C1108      C1109   1.422       .  A
C1109      C1110   1.406       .  A
C1109      H1116   1.075       .  S
C1110      S1112   1.805       .  S
S1111      H1114   1.407       .  S
S1112      H1113   1.403       .  S
C1117      C1118   1.409   1_554  A
C1117      C1122   1.411       .  A
C1118      C1119   1.421       .  A
C1118      H1127   1.081       .  S
C1119      C1120   1.433   1_556  A
C1119      S1123   1.807       .  S
C1120      C1121   1.426       .  A
C1121      C1122   1.408       .  A
C1121      H1128   1.078       .  S
C1122      S1124   1.805       .  S
S1123      H1126   1.407       .  S
S1124      H1125   1.402       .  S
