geometry optimzed in LAMMPS
_audit_creation_date              2020-11-30 
_audit_creation_method            'lammps2cif' 
_symmetry_space_group_name_H-M    'P1' 
_symmetry_Int_Tables_number       1 
_symmetry_cell_setting            triclinic 
loop_ 
_symmetry_equiv_pos_as_xyz 
  x,y,z 
_cell_length_a                    34.51996217 
_cell_length_b                    44.79251755613151 
_cell_length_c                    29.556586111978 
_cell_angle_alpha                 90.13560350356545 
_cell_angle_beta                  89.51882407775885 
_cell_angle_gamma                 90.16175645009068 
loop_ 
_atom_site_label 
_atom_site_type_symbol 
_atom_site_fract_x 
_atom_site_fract_y 
_atom_site_fract_z 
_atom_site_charge 
N1          N  0.05348202  0.02493908  0.09724164    -0.35200
N2          N  0.11462673  0.98550484  0.07032881    -0.55700
N3          N  0.16653265  0.01615353  0.13125840    -0.35200
N4          N  0.10380002  0.05597454  0.15882395    -0.55700
C5          C  0.03724820  0.01044320  0.06209274     0.28400
C6          C  0.03454810  0.05109994  0.10202099     0.28400
C7          C  0.19020857  0.99414166  0.11611139     0.28400
C8          C  0.18161472  0.02679552  0.17025121     0.28400
C9          C  0.08689210  0.97576295  0.04195078     0.37000
C10         C  0.14860109  0.97544414  0.05365860     0.37000
C11         C  0.07089388  0.07131818  0.16719763     0.37000
C12         C  0.12805121  0.06198882  0.19316783     0.42200
C13         C  0.00897677  0.02803902  0.04274285    -0.20500
C14         C  0.00667993  0.05350750  0.06856295    -0.20500
C15         C  0.22174633  0.99169824  0.14445536    -0.20500
C16         C  0.21626482  0.01213614  0.17872055    -0.20500
C17         C  0.10345384  0.96101123  0.00544152    -0.21500
C18         C  0.14252007  0.96023180  0.01332952    -0.21500
C19         C  0.07454912  0.08808997  0.20629018    -0.21500
C20         C  0.11085929  0.08226596  0.22273682    -0.21500
C21         C  0.04703107  0.98123834  0.04853203    -0.16900
C22         C  0.03761069  0.07010601  0.13995113    -0.16900
C23         C  0.16472152  0.04855734  0.19944793    -0.16900
C24         C  0.18384762  0.97604796  0.07757382    -0.16900
H25         H  0.99118650  0.02272013  0.01382344     0.16000
H26         H  0.98611309  0.07132214  0.06363722     0.16000
H27         H  0.24577799  0.97633867  0.14135984     0.16000
H28         H  0.23538529  0.01534338  0.20716068     0.16000
H29         H  0.08900394  0.95179623  0.97619560     0.14300
H30         H  0.16384196  0.94926250  0.99209111     0.14300
H31         H  0.05320723  0.10273868  0.22151374     0.14300
H32         H  0.12286752  0.09151820  0.25344427     0.14300
H33         H  0.07197890  0.01525130  0.12065077     0.27600
H34         H  0.14241913  0.02420730  0.11461851     0.27600
N35         N  0.00746779  0.91449283  0.98638027    -0.35200
N36         N  0.95355050  0.88244697  0.93016918    -0.55700
N37         N  0.89395171  0.92472073  0.95568175    -0.35200
N38         N  0.94796860  0.95591526  0.01267062    -0.55700
C39         C  0.02511630  0.88765858  0.98350751     0.28400
C40         C  0.02551247  0.93005580  0.01928887     0.28400
C41         C  0.87926992  0.91491443  0.91597973     0.28400
C42         C  0.87284553  0.94870254  0.96882097     0.28400
C43         C  0.98419947  0.86413508  0.92460648     0.37000
C44         C  0.92683601  0.87397508  0.89968703     0.37000
C45         C  0.97648317  0.96483920  0.04053171     0.37000
C46         C  0.91449557  0.96528384  0.03161597     0.37000
C47         C  0.05403769  0.88600384  0.01577987    -0.20500
C48         C  0.05358034  0.91251243  0.03914712    -0.20500
C49         C  0.84824274  0.93295251  0.90413882    -0.20500
C50         C  0.84386881  0.95398152  0.93784314    -0.20500
C51         C  0.97666938  0.84319534  0.89135086    -0.21500
C52         C  0.94010212  0.84920465  0.87583740    -0.21500
C53         C  0.96100440  0.97842387  0.07873940    -0.21500
C54         C  0.92167681  0.97922748  0.07270529    -0.21500
C55         C  0.01882886  0.86617413  0.94928503    -0.16900
C56         C  0.01612840  0.95949913  0.03218341    -0.16900
C57         C  0.87872770  0.96512360  0.00897614    -0.16900
C58         C  0.89214325  0.88967224  0.89073204    -0.16900
H59         H  0.07358524  0.86769275  0.02202563     0.16000
H60         H  0.07196134  0.91825234  0.06736475     0.16000
H61         H  0.83039138  0.93114875  0.87433344     0.16000
H62         H  0.82220394  0.97138712  0.93903404     0.16000
H63         H  0.99554636  0.82552119  0.87951419     0.14300
H64         H  0.92546175  0.83707308  0.84927538     0.14300
H65         H  0.97636209  0.98681249  0.10791914     0.14300
H66         H  0.90098651  0.98947582  0.09557356     0.14300
H67         H  0.98790771  0.92342655  0.96348489     0.27600
H68         H  0.91475649  0.91424244  0.97525771     0.27600
In69       In  0.79779542  0.33413132  0.19906364     1.36900
C70         C  0.87440729  0.33304637  0.20814075     0.79000
O71         O  0.76832825  0.29907751  0.15572603    -0.59400
O72         O  0.79164310  0.28691999  0.21930904    -0.50300
C73         C  0.75227298  0.34673234  0.26887856     0.71700
O74         O  0.78646479  0.33742059  0.27278999    -0.45200
C75         C  0.79796001  0.37897278  0.14008130     0.76400
O76         O  0.85235762  0.34761338  0.23406396    -0.57100
O77         O  0.79492577  0.35201491  0.12808898    -0.47100
O78         O  0.85696630  0.31792459  0.17867619    -0.53500
C79         C  0.77469262  0.27856141  0.18393767     0.86600
O80         O  0.74094381  0.34946919  0.22850841    -0.55400
O81         O  0.79741337  0.38293123  0.18228592    -0.58700
In82       In  0.80260766  0.09611371  0.17085621     1.36900
C83         C  0.87945923  0.09721923  0.17307281     0.79000
O84         O  0.80283424  0.04838011  0.15106897    -0.59400
O85         O  0.79519060  0.08027988  0.09896261    -0.50300
C86         C  0.75905682  0.07719807  0.23917238     0.71700
O87         O  0.79393830  0.08502166  0.24344949    -0.45200
C88         C  0.78057412  0.15264638  0.16774018     0.76400
O89         O  0.85900743  0.08536148  0.20361258    -0.57100
O90         O  0.80020875  0.14166078  0.19921878    -0.47100
O91         O  0.86038401  0.10956284  0.14223075    -0.53500
C92         C  0.80042211  0.05324004  0.10927631     0.86600
O93         O  0.74606492  0.07942580  0.19941936    -0.55400
O94         O  0.77163638  0.13450691  0.13671941    -0.58700
N95         N  0.04619908  0.41122123  0.13548963    -0.35200
N96         N  0.09654492  0.38029350  0.19722347    -0.55700
N97         N  0.15908612  0.41998305  0.17028080    -0.35200
N98         N  0.10784347  0.45064368  0.10870504    -0.55700
C99         C  0.02736711  0.38491521  0.14014151     0.28400
C100        C  0.03043075  0.42524140  0.09971230     0.28400
C101        C  0.17383638  0.40950524  0.20953614     0.28400
C102        C  0.18267328  0.44225875  0.15560532     0.28400
C103        C  0.06426735  0.36383546  0.20405031     0.37000
C104        C  0.12165423  0.37254445  0.22977408     0.37000
C105        C  0.08043472  0.45991835  0.07962347     0.37000
C106        C  0.14215778  0.46011135  0.09188671     0.37000
C107        C  0.00005002  0.38192948  0.10622004    -0.20500
C108        C  0.00266398  0.40713129  0.07999315    -0.20500
C109        C  0.20770658  0.42502077  0.21916475    -0.20500
C110        C  0.21341584  0.44545537  0.18499300    -0.20500
C111        C  0.06902438  0.34485214  0.24040677    -0.21500
C112        C  0.10557753  0.35019062  0.25656591    -0.21500
C113        C  0.09753791  0.47382327  0.04271433    -0.21500
C114        C  0.13655555  0.47453182  0.05090370    -0.21500
C115        C  0.03079865  0.36554339  0.17741015    -0.16900
C116        C  0.04042836  0.45429435  0.08538952    -0.16900
C117        C  0.17748776  0.45925297  0.11578546    -0.16900
C118        C  0.15805460  0.38628424  0.23701126    -0.16900
H119        H  0.98000134  0.36367932  0.10101958     0.16000
H120        H  0.98555037  0.41186303  0.05035741     0.16000
H121        H  0.22642198  0.42205746  0.24798771     0.16000
H122        H  0.23726214  0.46111174  0.18240919     0.16000
H123        H  0.04840598  0.32880606  0.25371614     0.14300
H124        H  0.11849746  0.33914400  0.28521746     0.14300
H125        H  0.08353850  0.48230605  0.01277548     0.14300
H126        H  0.15810948  0.48485440  0.02923358     0.14300
H127        H  0.06464509  0.42108203  0.15894638     0.27600
H128        H  0.13600216  0.41113117  0.15237119     0.27600
N129        N  0.00330497  0.51852915  0.01697383    -0.35200
N130        N  0.94187903  0.47898863  0.04567435    -0.55700
N131        N  0.88979306  0.50883656  0.98570338    -0.35200
N132        N  0.95170490  0.54902085  0.95728048    -0.55700
C133        C  0.01952250  0.50446238  0.05241530     0.28400
C134        C  0.02124872  0.54528507  0.01290768     0.28400
C135        C  0.86665685  0.48652645  0.00103355     0.28400
C136        C  0.87532607  0.51803587  0.94573604     0.28400
C137        C  0.96994095  0.47003595  0.07406075     0.37000
C138        C  0.90794854  0.47017028  0.06434350     0.37000
C139        C  0.98355422  0.56574979  0.94943344     0.37000
C140        C  0.92660028  0.55542880  0.92417092     0.37000
C141        C  0.04660031  0.52292747  0.07260659    -0.20500
C142        C  0.04839705  0.54844881  0.04697828    -0.20500
C143        C  0.83643631  0.48200180  0.97129379    -0.20500
C144        C  0.84206637  0.50170280  0.93617136    -0.20500
C145        C  0.95370786  0.45695308  0.11219307    -0.21500
C146        C  0.91446552  0.45648530  0.10564838    -0.21500
C147        C  0.97844762  0.58363459  0.91186862    -0.21500
C148        C  0.94219418  0.57715715  0.89583676    -0.21500
C149        C  0.00981892  0.47536166  0.06674027    -0.16900
C150        C  0.01704381  0.56498239  0.97605381    -0.16900
C151        C  0.89070543  0.54093813  0.91771188    -0.16900
C152        C  0.87214612  0.47059238  0.04161586    -0.16900
H153        H  0.06363571  0.51831422  0.10234392     0.16000
H154        H  0.06773702  0.56704433  0.05284427     0.16000
H155        H  0.81310533  0.46591474  0.97422265     0.16000
H156        H  0.82373518  0.50367579  0.90680304     0.16000
H157        H  0.96846686  0.44887105  0.14187950     0.14300
H158        H  0.89334919  0.44676492  0.12852440     0.14300
H159        H  0.99875992  0.59948463  0.89742268     0.14300
H160        H  0.92919372  0.58694272  0.86618785     0.14300
H161        H  0.98494476  0.50850149  0.99357086     0.27600
H162        H  0.91228072  0.51864312  0.00358043     0.27600
In163      In  0.25059799  0.83161737  0.93280268     1.36900
C164        C  0.17366097  0.82967698  0.92271007     0.79000
O165        O  0.26286747  0.78503340  0.91133442    -0.59400
O166        O  0.27677681  0.79681922  0.97882516    -0.50300
C167        C  0.29726078  0.84539201  0.86442123     0.71700
O168        O  0.26340321  0.83532065  0.85950689    -0.45200
C169        C  0.25167671  0.87775042  0.98963363     0.76400
O170        O  0.19605403  0.84356819  0.89636435    -0.57100
O171        O  0.25385204  0.85109279  0.00307001    -0.47100
O172        O  0.19090674  0.81536126  0.95302992    -0.53500
C173        C  0.27569240  0.77666065  0.94893548     0.86600
O174        O  0.30777503  0.84805662  0.90515235    -0.55400
O175        O  0.25185244  0.88063761  0.94729477    -0.58700
In176      In  0.24915127  0.59478292  0.95662351     1.36900
C177        C  0.17260864  0.59840846  0.94665082     0.79000
O178        O  0.24697936  0.54648483  0.97537882    -0.59400
O179        O  0.25450012  0.57777816  0.02838226    -0.50300
C180        C  0.29545056  0.57607286  0.89145782     0.71700
O181        O  0.26118772  0.58462812  0.88493003    -0.45200
C182        C  0.27523781  0.65063528  0.96177459     0.76400
O183        O  0.19435038  0.58446667  0.91964806    -0.57100
O184        O  0.27512168  0.63352910  0.99570146    -0.47100
O185        O  0.19036138  0.61174940  0.97778313    -0.53500
C186        C  0.24968562  0.55076642  0.01732315     0.86600
O187        O  0.30636733  0.57700729  0.93221747    -0.55400
O188        O  0.26311514  0.63878884  0.92597611    -0.58700
N189        N  0.50201780  0.90315001  0.60588370    -0.35200
N190        N  0.44189510  0.94299704  0.57792545    -0.55700
N191        N  0.38894293  0.91397480  0.64067451    -0.35200
N192        N  0.45019976  0.87375320  0.66886741    -0.55700
C193        C  0.51871117  0.91644976  0.56966639     0.28400
C194        C  0.52005116  0.87670136  0.61145918     0.28400
C195        C  0.36596834  0.93611567  0.62503562     0.28400
C196        C  0.37327021  0.90412809  0.68015020     0.28400
C197        C  0.47007771  0.95163274  0.54870767     0.37000
C198        C  0.40812182  0.95300466  0.56108133     0.37000
C199        C  0.48242825  0.85773077  0.67708962     0.37000
C200        C  0.42486033  0.86753894  0.70248975     0.37000
C201        C  0.54615433  0.89771898  0.55047886    -0.20500
C202        C  0.54767718  0.87288461  0.57751075    -0.20500
C203        C  0.33463222  0.93979079  0.65405718    -0.20500
C204        C  0.33936918  0.91983684  0.68895052    -0.20500
C205        C  0.45387900  0.96560864  0.51166651    -0.21500
C206        C  0.41482416  0.96718070  0.52000884    -0.21500
C207        C  0.47736037  0.84048736  0.71544427    -0.21500
C208        C  0.44072122  0.84651054  0.73142023    -0.21500
C209        C  0.50992473  0.94544260  0.55455095    -0.16900
C210        C  0.51615936  0.85836512  0.64998196    -0.16900
C211        C  0.38848894  0.88157985  0.70884566    -0.16900
C212        C  0.37228408  0.95264386  0.58477590    -0.16900
H213        H  0.56389131  0.90186081  0.52076998     0.16000
H214        H  0.56742796  0.85444394  0.57283933     0.16000
H215        H  0.31104094  0.95547937  0.65080872     0.16000
H216        H  0.32005740  0.91736608  0.71774138     0.16000
H217        H  0.46846431  0.97360324  0.48148662     0.14300
H218        H  0.39398811  0.97784040  0.49827915     0.14300
H219        H  0.49787523  0.82520903  0.73028210     0.14300
H220        H  0.42765101  0.83686960  0.76142768     0.14300
H221        H  0.48367739  0.91364675  0.62910363     0.27600
H222        H  0.41241302  0.90487222  0.62345159     0.27600
N223        N  0.54814232  0.00709205  0.48206241    -0.35200
N224        N  0.61009362  0.97005944  0.51488941    -0.55700
N225        N  0.66444954  0.00248996  0.45735374    -0.35200
N226        N  0.60104193  0.03906273  0.42368962    -0.55700
C227        C  0.53266595  0.99458084  0.51959727     0.28400
C228        C  0.52971273  0.03334469  0.47618831     0.28400
C229        C  0.68796133  0.98086165  0.47355762     0.28400
C230        C  0.68177836  0.01396711  0.41991904     0.28400
C231        C  0.58141751  0.96036339  0.54266063     0.37000
C232        C  0.64369679  0.96103608  0.53336280     0.37000
C233        C  0.56823815  0.05377357  0.41305355     0.37000
C234        C  0.62846290  0.04807030  0.39399603     0.37000
C235        C  0.50602785  0.01376246  0.53934082    -0.20500
C236        C  0.50329095  0.03792960  0.51110820    -0.20500
C237        C  0.72130184  0.97933213  0.44734757    -0.20500
C238        C  0.71732797  0.99999335  0.41337520    -0.20500
C239        C  0.59702531  0.94675090  0.58038351    -0.21500
C240        C  0.63641188  0.94657325  0.57401617    -0.21500
C241        C  0.57473654  0.07275032  0.37701201    -0.21500
C242        C  0.61307050  0.06943416  0.36520225    -0.21500
C243        C  0.54161081  0.96583059  0.53537955    -0.16900
C244        C  0.53335743  0.05152331  0.43765066    -0.16900
C245        C  0.66644257  0.03616281  0.39068578    -0.16900
C246        C  0.68026102  0.96261786  0.51161166    -0.16900
H247        H  0.48950490  0.01024565  0.57016352     0.16000
H248        H  0.48397466  0.05664983  0.51586724     0.16000
H249        H  0.74566495  0.96448377  0.45170881     0.16000
H250        H  0.73815808  0.00383767  0.38644545     0.16000
H251        H  0.58183014  0.93830695  0.60986539     0.14300
H252        H  0.65725035  0.93683356  0.59675484     0.14300
H253        H  0.55428332  0.08781908  0.36158417     0.14300
H254        H  0.62773455  0.08127319  0.33815010     0.14300
H255        H  0.56637423  0.99642139  0.45882377     0.27600
H256        H  0.63901076  0.00996196  0.47260074     0.27600
In257      In  0.29816785  0.32978960  0.45326915     1.36900
C258        C  0.37521934  0.32947782  0.44799838     0.79000
O259        O  0.29742372  0.37806627  0.47267798    -0.59400
O260        O  0.29375238  0.34666924  0.52584501    -0.50300
C261        C  0.25110148  0.34667668  0.38742305     0.71700
O262        O  0.28694651  0.34241320  0.38187164    -0.45200
C263        C  0.27937950  0.27208082  0.45445161     0.76400
O264        O  0.35414731  0.34169908  0.41877423    -0.57100
O265        O  0.26963099  0.28938276  0.48651100    -0.47100
O266        O  0.35663454  0.31599037  0.47862860    -0.53500
C267        C  0.29732785  0.37381199  0.51475287     0.86600
O268        O  0.23895633  0.34246920  0.42745767    -0.55400
O269        O  0.29796064  0.28451798  0.42286832    -0.58700
In270      In  0.29985809  0.08809294  0.42713753     1.36900
C271        C  0.37637012  0.08473373  0.41436081     0.79000
O272        O  0.29853432  0.13566283  0.40656504    -0.59400
O273        O  0.26972334  0.12454974  0.46793011    -0.50300
C274        C  0.25411189  0.07698159  0.35781120     0.71700
O275        O  0.28918497  0.08443327  0.35358217    -0.45200
C276        C  0.29768142  0.04468900  0.48890911     0.76400
O277        O  0.35261419  0.06949435  0.39180580    -0.57100
O278        O  0.30299877  0.07176132  0.49914557    -0.47100
O279        O  0.36070140  0.10236221  0.44220552    -0.53500
C280        C  0.27926786  0.14474458  0.44014167     0.86600
O281        O  0.24220357  0.07481980  0.39826616    -0.55400
O282        O  0.28961384  0.04050661  0.44788324    -0.58700
N283        N  0.50266652  0.51307922  0.64137452    -0.35200
N284        N  0.44164604  0.47385527  0.61119741    -0.55700
N285        N  0.38881538  0.50329709  0.67233988    -0.35200
N286        N  0.45137115  0.54240460  0.70327859    -0.55700
C287        C  0.51835290  0.49987554  0.60458241     0.28400
C288        C  0.52045987  0.53978930  0.64605299     0.28400
C289        C  0.36502483  0.48182726  0.65556183     0.28400
C290        C  0.37286530  0.51335326  0.71154592     0.28400
C291        C  0.47055697  0.46397436  0.58403135     0.37000
C292        C  0.40829813  0.46331524  0.59374755     0.37000
C293        C  0.48395369  0.55788735  0.71261642     0.37000
C294        C  0.42610618  0.54806926  0.73708737     0.37000
C295        C  0.54475077  0.51882132  0.58391682    -0.20500
C296        C  0.54683766  0.54382383  0.61077184    -0.20500
C297        C  0.33284985  0.47896447  0.68349842    -0.20500
C298        C  0.33788951  0.49862605  0.71891076    -0.20500
C299        C  0.45536565  0.44856942  0.54754447    -0.21500
C300        C  0.41605877  0.44755295  0.55419030    -0.21500
C301        C  0.47932671  0.57410588  0.75213428    -0.21500
C302        C  0.44252920  0.56802951  0.76760327    -0.21500
C303        C  0.51016370  0.47049283  0.59103475    -0.16900
C304        C  0.51716648  0.55814752  0.68472818    -0.16900
C305        C  0.38884936  0.53504650  0.74148838    -0.16900
C306        C  0.37175805  0.46472163  0.61576244    -0.16900
H307        H  0.56174915  0.51453321  0.55366551     0.16000
H308        H  0.56626667  0.56238461  0.60502980     0.16000
H309        H  0.30865319  0.46381376  0.67938701     0.16000
H310        H  0.31818023  0.50140571  0.74727077     0.16000
H311        H  0.47075952  0.43934450  0.51873799     0.14300
H312        H  0.39576822  0.43611110  0.53247368     0.14300
H313        H  0.50011667  0.58886029  0.76793941     0.14300
H314        H  0.42960744  0.57715164  0.79808825     0.14300
H315        H  0.48523860  0.50230177  0.66528764     0.27600
H316        H  0.41325728  0.51184490  0.65631301     0.27600
N317        N  0.54850318  0.40715786  0.52388592    -0.35200
N318        N  0.61073115  0.44487488  0.55474578    -0.55700
N319        N  0.66310042  0.41291469  0.49492415    -0.35200
N320        N  0.59917530  0.37567366  0.46337327    -0.55700
C321        C  0.53367257  0.42036659  0.56117906     0.28400
C322        C  0.52950982  0.38095722  0.51884842     0.28400
C323        C  0.68782739  0.43359987  0.51186915     0.28400
C324        C  0.67959183  0.40158636  0.45683890     0.28400
C325        C  0.58206667  0.45621204  0.58098224     0.37000
C326        C  0.64442727  0.45514343  0.57160546     0.37000
C327        C  0.56579226  0.36147717  0.45319925     0.37000
C328        C  0.62481099  0.36873117  0.43046349     0.37000
C329        C  0.50667895  0.40179651  0.58170062    -0.20500
C330        C  0.50324246  0.37717662  0.55421026    -0.20500
C331        C  0.72111786  0.43455115  0.48544350    -0.20500
C332        C  0.71582401  0.41461751  0.45058810    -0.20500
C333        C  0.59777203  0.47242830  0.61639584    -0.21500
C334        C  0.63715397  0.47232126  0.60992230    -0.21500
C335        C  0.57027450  0.34471176  0.41420972    -0.21500
C336        C  0.60780070  0.34915047  0.39986306    -0.21500
C337        C  0.54231260  0.44973962  0.57466149    -0.16900
C338        C  0.53200637  0.36270296  0.48005953    -0.16900
C339        C  0.66277792  0.38059034  0.42650434    -0.16900
C340        C  0.68109399  0.45189116  0.55027136    -0.16900
H341        H  0.48998802  0.40621430  0.61214250     0.16000
H342        H  0.48313781  0.35896536  0.55949867     0.16000
H343        H  0.74627005  0.44867409  0.49008615     0.16000
H344        H  0.73624630  0.41060765  0.42328741     0.16000
H345        H  0.58277432  0.48262620  0.64471858     0.14300
H346        H  0.65788691  0.48376812  0.63107316     0.14300
H347        H  0.54890768  0.33063311  0.39806209     0.14300
H348        H  0.62084949  0.33926476  0.37000000     0.14300
H349        H  0.56620702  0.41763715  0.49991727     0.27600
H350        H  0.63730763  0.40606987  0.50984080     0.27600
In351      In  0.75021896  0.58998921  0.70134094     1.36900
C352        C  0.67360600  0.59072321  0.70897460     0.79000
O353        O  0.75125100  0.63645413  0.72580459    -0.59400
O354        O  0.77738400  0.62794101  0.66182104    -0.50300
C355        C  0.79737817  0.57663448  0.76755704     0.71700
O356        O  0.76200198  0.58235711  0.77365642    -0.45200
C357        C  0.75412615  0.54402484  0.64477767     0.76400
O358        O  0.69526394  0.57946912  0.73842679    -0.57100
O359        O  0.75830839  0.57065979  0.63156712    -0.47100
O360        O  0.69139647  0.60216496  0.67588401    -0.53500
C361        C  0.76841978  0.64700979  0.69169930     0.86600
O362        O  0.80898750  0.57800304  0.72694120    -0.55400
O363        O  0.75077092  0.54116310  0.68698507    -0.58700
In364      In  0.75082554  0.83175059  0.67576826     1.36900
C365        C  0.67372985  0.83039470  0.68125644     0.79000
O366        O  0.75319090  0.87899345  0.65278904    -0.59400
O367        O  0.75708823  0.84552860  0.60225741    -0.50300
C368        C  0.79701608  0.85023291  0.74143104     0.71700
O369        O  0.76084884  0.84728829  0.74607041    -0.45200
C370        C  0.76958577  0.77450709  0.67794259     0.76400
O371        O  0.69458126  0.84506833  0.70818235    -0.57100
O372        O  0.77910459  0.79079713  0.64470152    -0.47100
O373        O  0.69256925  0.81554254  0.65235895    -0.53500
C374        C  0.75427763  0.87304605  0.61119046     0.86600
O375        O  0.80982717  0.84396013  0.70231162    -0.55400
O376        O  0.75159472  0.78788483  0.70911603    -0.58700
C377        C  0.78030803  0.69306969  0.64503492     0.25000
C378        C  0.77572508  0.67935216  0.68754742    -0.23100
C379        C  0.77438199  0.69725320  0.72665101     0.19900
C380        C  0.77525489  0.72820090  0.72328086     0.25000
C381        C  0.77690170  0.74210178  0.68070802    -0.23000
C382        C  0.78088356  0.72431950  0.64161917     0.19900
F383        F  0.78270399  0.73704300  0.60001920    -0.13000
F384        F  0.78151703  0.67637956  0.60664790    -0.15300
F385        F  0.77316765  0.74460835  0.76193400    -0.15300
F386        F  0.77087491  0.68486045  0.76840247    -0.13000
C387        C  0.73139171  0.46594645  0.60685125     0.25000
C388        C  0.71238925  0.47204813  0.56616401    -0.23100
C389        C  0.71658793  0.50030949  0.54625365     0.19900
C390        C  0.73491445  0.52339528  0.56977026     0.25000
C391        C  0.74878932  0.51845781  0.61373690    -0.23000
C392        C  0.74940643  0.48906961  0.63069155     0.19900
F393        F  0.76432937  0.48321501  0.67209365    -0.13000
F394        F  0.72866355  0.43843402  0.62580241    -0.15300
F395        F  0.73488132  0.55123980  0.55171992    -0.15300
F396        F  0.69938292  0.50632435  0.50617314    -0.13000
C397        C  0.56859084  0.59755090  0.67618117     0.25000
C398        C  0.55276456  0.57342374  0.70029188    -0.23100
C399        C  0.57464511  0.55979988  0.73427147     0.19900
C400        C  0.61330699  0.56775683  0.74039191     0.25000
C401        C  0.63097271  0.58870735  0.71138980    -0.23000
C402        C  0.60779668  0.60477203  0.68095166     0.19900
F403        F  0.62351308  0.62615229  0.65391248    -0.13000
F404        F  0.54709973  0.61205264  0.64491579    -0.15300
F405        F  0.63418973  0.55293268  0.77188910    -0.15300
F406        F  0.55956169  0.53685823  0.75874665    -0.13000
C407        C  0.44068209  0.31601361  0.47850532     0.25000
C408        C  0.41791081  0.33280306  0.44846098    -0.23100
C409        C  0.43573665  0.35556015  0.42287196     0.19900
C410        C  0.47430318  0.36335122  0.43056234     0.25000
C411        C  0.49571615  0.34860848  0.46386045    -0.23000
C412        C  0.47946680  0.32379327  0.48590110     0.19900
F413        F  0.50034650  0.30850746  0.51687367    -0.13000
F414        F  0.42496895  0.29306570  0.50239569    -0.15300
F415        F  0.48995911  0.38682738  0.40780318    -0.15300
F416        F  0.41509695  0.37199255  0.39303436    -0.13000
C417        C  0.31999033  0.39247328  0.59054884     0.25000
C418        C  0.30511060  0.39854868  0.54727532    -0.23100
C419        C  0.30466623  0.42844527  0.53227059     0.19900
C420        C  0.32231272  0.45106942  0.55771312     0.25000
C421        C  0.34114345  0.44422401  0.59829120    -0.23000
C422        C  0.33816020  0.41510397  0.61561767     0.19900
F423        F  0.35625988  0.40796770  0.65471982    -0.13000
F424        F  0.32054910  0.36413315  0.60668104    -0.15300
F425        F  0.32500341  0.47900106  0.54019268    -0.15300
F426        F  0.28997707  0.43547592  0.49118875    -0.13000
C427        C  0.27345055  0.22191129  0.49224188     0.25000
C428        C  0.27114272  0.23965551  0.45312317    -0.23100
C429        C  0.26572245  0.22567011  0.41099018     0.19900
C430        C  0.26531861  0.19460102  0.40751638     0.25000
C431        C  0.27053780  0.17679392  0.44604809    -0.23000
C432        C  0.27302970  0.19060636  0.48872075     0.19900
F433        F  0.27851378  0.17392671  0.52640257    -0.13000
F434        F  0.27960713  0.23473767  0.53321191    -0.15300
F435        F  0.26135264  0.18187296  0.36603583    -0.15300
F436        F  0.26235064  0.24214905  0.37270706    -0.13000
C437        C  0.47384969  0.04932557  0.39136018     0.25000
C438        C  0.49749438  0.06571341  0.42084986    -0.23100
C439        C  0.48299863  0.09178444  0.44103279     0.19900
C440        C  0.44392151  0.09931235  0.43623128     0.25000
C441        C  0.41893358  0.08090828  0.41086791    -0.23000
C442        C  0.43481761  0.05677733  0.38638742     0.19900
F443        F  0.41211437  0.03896404  0.36040261    -0.13000
F444        F  0.48786732  0.02458297  0.37029578    -0.15300
F445        F  0.43008561  0.12352272  0.45878805    -0.15300
F446        F  0.50581713  0.10842494  0.46854183    -0.13000
C447        C  0.73354877  0.94909043  0.56454616     0.25000
C448        C  0.71032811  0.94148612  0.52756431    -0.23100
C449        C  0.70993290  0.91182082  0.51195588     0.19900
C450        C  0.72885077  0.88943050  0.53623836     0.25000
C451        C  0.74786249  0.89649510  0.57684104    -0.23000
C452        C  0.75235373  0.92675377  0.58895289     0.19900
F453        F  0.77219377  0.93447424  0.62671005    -0.13000
F454        F  0.73464240  0.97768478  0.57978872    -0.15300
F455        F  0.72476129  0.86058990  0.52280994    -0.15300
F456        F  0.68803688  0.90414985  0.47577008    -0.13000
C457        C  0.56920343  0.82002712  0.64624645     0.25000
C458        C  0.55223390  0.84492058  0.66728506    -0.23100
C459        C  0.57344649  0.86130114  0.69912562     0.19900
C460        C  0.61233159  0.85485855  0.70658344     0.25000
C461        C  0.63091428  0.83221464  0.68151217    -0.23000
C462        C  0.60854349  0.81391512  0.65279376     0.19900
F463        F  0.62516211  0.79134139  0.62890336    -0.13000
F464        F  0.54864850  0.80345313  0.61627745    -0.15300
F465        F  0.63245500  0.87258447  0.73542195    -0.15300
F466        F  0.55738473  0.88542400  0.71986799    -0.13000
C467        C  0.34001750  0.00248360  0.58694811     0.25000
C468        C  0.34198069  0.97357237  0.56864257    -0.23100
C469        C  0.32125477  0.96699473  0.52918598     0.19900
C470        C  0.30284159  0.98983783  0.50534279     0.25000
C471        C  0.30502982  0.01966201  0.52066222    -0.23000
C472        C  0.32145154  0.02534721  0.56334574     0.19900
F473        F  0.32266967  0.05348524  0.58044770    -0.13000
F474        F  0.35920329  0.00915482  0.62560577    -0.15300
F475        F  0.28590024  0.98308395  0.46529715    -0.15300
F476        F  0.32257982  0.93910848  0.51114051    -0.13000
C477        C  0.35154573  0.54648108  0.86128396     0.25000
C478        C  0.32025913  0.56585646  0.85380754    -0.23100
C479        C  0.31191270  0.57496294  0.80939868     0.19900
C480        C  0.33403325  0.56456195  0.77307118     0.25000
C481        C  0.36480915  0.54492002  0.78041727    -0.23000
C482        C  0.37363467  0.53599882  0.82470933     0.19900
F483        F  0.40391080  0.51745609  0.83239738    -0.13000
F484        F  0.36025115  0.53723425  0.90371438    -0.15300
F485        F  0.32577298  0.57394758  0.73059424    -0.15300
F486        F  0.28277387  0.59446164  0.80112975    -0.13000
C487        C  0.31099599  0.84505911  0.78122750     0.25000
C488        C  0.32181296  0.85384256  0.82519407    -0.23100
C489        C  0.35512824  0.87167313  0.83068808     0.19900
C490        C  0.37647773  0.88112778  0.79283791     0.25000
C491        C  0.36521254  0.87255556  0.74908616    -0.23000
C492        C  0.33250948  0.85435863  0.74361256     0.19900
F493        F  0.32155381  0.84546517  0.70167165    -0.13000
F494        F  0.27973742  0.82717231  0.77449427    -0.15300
F495        F  0.40828585  0.89855870  0.79875731    -0.15300
F496        F  0.36673594  0.88037027  0.87248708    -0.13000
C497        C  0.27676408  0.73129109  0.99823366     0.25000
C498        C  0.28606581  0.74521623  0.95693128    -0.23100
C499        C  0.29935250  0.72772401  0.92050761     0.19900
C500        C  0.29918541  0.69664892  0.92358284     0.25000
C501        C  0.28592640  0.68254075  0.96326959    -0.23000
C502        C  0.27680155  0.70005911  0.00141916     0.19900
F503        F  0.26402548  0.68703565  0.04021199    -0.13000
F504        F  0.26376443  0.74764448  0.03395481    -0.15300
F505        F  0.30985155  0.68031329  0.88677999    -0.15300
F506        F  0.31038613  0.74070821  0.88093886    -0.13000
C507        C  0.87769377  0.54142239  0.83465054     0.25000
C508        C  0.86749860  0.55036490  0.87868683    -0.23100
C509        C  0.83533064  0.56874077  0.88591262     0.19900
C510        C  0.81276964  0.57757470  0.84955944     0.25000
C511        C  0.82260893  0.56855258  0.80529818    -0.23000
C512        C  0.85556728  0.55072761  0.79799098     0.19900
F513        F  0.86558749  0.54150334  0.75570133    -0.13000
F514        F  0.90888723  0.52358439  0.82739741    -0.15300
F515        F  0.78149144  0.59516788  0.85767492    -0.15300
F516        F  0.82586558  0.57804734  0.92833660    -0.13000
C517        C  0.06795018  0.60505825  0.98247470     0.25000
C518        C  0.05238794  0.58038376  0.95960463    -0.23100
C519        C  0.07382518  0.56678365  0.92477259     0.19900
C520        C  0.11224404  0.57500006  0.91699100     0.25000
C521        C  0.12989846  0.59670042  0.94458729    -0.23000
C522        C  0.10671200  0.61312127  0.97519384     0.19900
F523        F  0.12215731  0.63558830  0.00018543    -0.13000
F524        F  0.04665465  0.61962729  0.01436220    -0.15300
F525        F  0.13293220  0.55974107  0.88528544    -0.15300
F526        F  0.05850797  0.54366700  0.90098670    -0.13000
C527        C  0.21479010  0.35910018  0.26843479     0.25000
C528        C  0.18114198  0.37582742  0.27616990    -0.23100
C529        C  0.16938514  0.38200528  0.32091459     0.19900
C530        C  0.19154237  0.37200879  0.35741198     0.25000
C531        C  0.22596122  0.35592100  0.34958605    -0.23000
C532        C  0.23709617  0.34935473  0.30468937     0.19900
F533        F  0.26937701  0.33305615  0.29578407    -0.13000
F534        F  0.22591176  0.35212041  0.22553264    -0.15300
F535        F  0.17994076  0.37881511  0.40020262    -0.15300
F536        F  0.13646438  0.39771628  0.32911583    -0.13000
C537        C  0.24739182  0.49629660  0.03619781     0.25000
C538        C  0.24364902  0.52626070  0.05023326    -0.23100
C539        C  0.22697440  0.53233214  0.09286855     0.19900
C540        C  0.20896007  0.50943319  0.11747857     0.25000
C541        C  0.20835667  0.48015956  0.10034529    -0.23000
C542        C  0.23022089  0.47333892  0.06147478     0.19900
F543        F  0.23105047  0.44494717  0.04531638    -0.13000
F544        F  0.26501683  0.48945315  0.99627491    -0.15300
F545        F  0.18873540  0.51632143  0.15567041    -0.15300
F546        F  0.22422099  0.56080441  0.10837512    -0.13000
C547        C  0.74734979  0.07227885  0.32255485     0.25000
C548        C  0.73565626  0.06627610  0.27784471    -0.23100
C549        C  0.70176998  0.04946321  0.27064828     0.19900
C550        C  0.67993977  0.03905933  0.30738811     0.25000
C551        C  0.69085765  0.04608984  0.35186200    -0.23000
C552        C  0.72476781  0.06267991  0.35919498     0.19900
F553        F  0.73594256  0.06957088  0.40191866    -0.13000
F554        F  0.78033127  0.08785530  0.33093476    -0.15300
F555        F  0.64779634  0.02231628  0.29967237    -0.15300
F556        F  0.69009742  0.04257458  0.22812821    -0.13000
C557        C  0.97932141  0.32585607  0.17321626     0.25000
C558        C  0.99472027  0.35137375  0.19399733    -0.23100
C559        C  0.97259965  0.36695049  0.22621274     0.19900
C560        C  0.93414279  0.35903044  0.23432219     0.25000
C561        C  0.91703245  0.33566736  0.20952719    -0.23000
C562        C  0.94055705  0.31799755  0.18092894     0.19900
F563        F  0.92547943  0.29432428  0.15827188    -0.13000
F564        F  0.00076848  0.31019382  0.14269751    -0.15300
F565        F  0.91291763  0.37599073  0.26343652    -0.15300
F566        F  0.98730403  0.39161842  0.24674640    -0.13000
C567        C  0.80234596  0.43358866  0.12190200     0.25000
C568        C  0.80593558  0.40359607  0.10793656    -0.23100
C569        C  0.82403393  0.39733112  0.06611003     0.19900
C570        C  0.84210245  0.42013960  0.04154048     0.25000
C571        C  0.84194811  0.44952725  0.05803100    -0.23000
C572        C  0.82004854  0.45644174  0.09685916     0.19900
F573        F  0.81948682  0.48481821  0.11310875    -0.13000
F574        F  0.78432818  0.44056536  0.16153141    -0.15300
F575        F  0.86329372  0.41307346  0.00412966    -0.15300
F576        F  0.82818297  0.36876423  0.05144717    -0.13000
C577        C  0.69622787  0.37350880  0.30466350     0.25000
C578        C  0.72820764  0.35434278  0.30874965    -0.23100
C579        C  0.73831425  0.34364593  0.35189600     0.19900
C580        C  0.71703648  0.35216716  0.39015115     0.25000
C581        C  0.68568808  0.37175175  0.38601058    -0.23000
C582        C  0.67557020  0.38253793  0.34314185     0.19900
F583        F  0.64567854  0.40192542  0.33874776    -0.13000
F584        F  0.68553605  0.38415461  0.26366940    -0.15300
F585        F  0.72712506  0.34148788  0.43135427    -0.15300
F586        F  0.76862350  0.32473535  0.35711794    -0.13000
C587        C  0.77279454  0.20234070  0.12960999     0.25000
C588        C  0.76973328  0.18437274  0.16846155    -0.23100
C589        C  0.76106368  0.19767798  0.21034121     0.19900
C590        C  0.75866438  0.22856978  0.21423371     0.25000
C591        C  0.76556933  0.24681061  0.17644666    -0.23000
C592        C  0.77055204  0.23354448  0.13358458     0.19900
F593        F  0.77679450  0.25072499  0.09643236    -0.13000
F594        F  0.78161509  0.19000167  0.08881853    -0.15300
F595        F  0.75162623  0.24076346  0.25560070    -0.15300
F596        F  0.75686681  0.18073289  0.24813129    -0.13000
C597        C  0.83049755  0.86870296  0.85994450     0.25000
C598        C  0.86810240  0.87952908  0.85201587    -0.23100
C599        C  0.88259068  0.88053409  0.80740704     0.19900
C600        C  0.85990302  0.87050729  0.77134953     0.25000
C601        C  0.82190653  0.86010483  0.77922309    -0.23000
C602        C  0.80749029  0.85935504  0.82396920     0.19900
F603        F  0.77124734  0.84907760  0.83320238    -0.13000
F604        F  0.81605519  0.86719289  0.90276293    -0.15300
F605        F  0.87495751  0.87141589  0.72879128    -0.15300
F606        F  0.91881826  0.89112945  0.79888023    -0.13000
C607        C  0.11419988  0.85382241  0.89220694     0.25000
C608        C  0.13093672  0.83232128  0.92067140    -0.23100
C609        C  0.10692563  0.81688172  0.95166990     0.19900
C610        C  0.06819220  0.82540164  0.95778141     0.25000
C611        C  0.05336280  0.84955406  0.93333014    -0.23000
C612        C  0.07580543  0.86246151  0.89878303     0.19900
F613        F  0.06163381  0.88563619  0.87446766    -0.13000
F614        F  0.13578210  0.86853908  0.86073317    -0.15300
F615        F  0.04638776  0.81214639  0.99051228    -0.15300
F616        F  0.12156126  0.79509746  0.97835830    -0.13000
C617        C  0.84644513  0.01491386  0.00993610     0.25000
C618        C  0.84826624  0.98551893  0.02618185    -0.23100
C619        C  0.82700056  0.97758887  0.06496526     0.19900
C620        C  0.80729367  0.99941064  0.08979659     0.25000
C621        C  0.80834719  0.02945215  0.07587819    -0.23000
C622        C  0.82595088  0.03668542  0.03417756     0.19900
F623        F  0.82741768  0.06540607  0.01963758    -0.13000
F624        F  0.86784681  0.02315694  0.97326724    -0.15300
F625        F  0.79034950  0.99162460  0.12971008    -0.15300
F626        F  0.82926578  0.94945099  0.08170077    -0.13000
C627        C  0.17486990  0.04593867  0.28323614     0.25000
C628        C  0.18642135  0.05685155  0.24067058    -0.23100
C629        C  0.21909571  0.07530967  0.23708483     0.19900
C630        C  0.24061967  0.08230003  0.27540762     0.25000
C631        C  0.22957294  0.07108092  0.31812694    -0.23000
C632        C  0.19598600  0.05334854  0.32187241     0.19900
F633        F  0.18424822  0.04244313  0.36257526    -0.13000
F634        F  0.14350937  0.02772750  0.28711396    -0.15300
F635        F  0.27218421  0.10021325  0.27065561    -0.15300
F636        F  0.23042962  0.08615697  0.19619443    -0.13000
C637        C  0.98357594  0.10745262  0.13543994     0.25000
C638        C  0.00098433  0.08314680  0.15706304    -0.23100
C639        C  0.97984777  0.06678776  0.18932052     0.19900
C640        C  0.94075180  0.07275681  0.19689287     0.25000
C641        C  0.92209369  0.09516431  0.17198322    -0.23000
C642        C  0.94416610  0.11325664  0.14248411     0.19900
F643        F  0.92719789  0.13547862  0.11865371    -0.13000
F644        F  0.00383375  0.12377338  0.10461726    -0.15300
F645        F  0.92054257  0.05478032  0.22558096    -0.15300
F646        F  0.99630708  0.04316296  0.21046016    -0.13000
C647        C  0.20728753  0.92386983  0.08251903     0.25000
C648        C  0.21241594  0.95274849  0.06504526    -0.23100
C649        C  0.23756650  0.95720484  0.02817425     0.19900
C650        C  0.25371689  0.93262836  0.00565281     0.25000
C651        C  0.24523347  0.90339208  0.02026767    -0.23000
C652        C  0.22375841  0.89932501  0.06044975     0.19900
F653        F  0.21469682  0.87148134  0.07530024    -0.13000
F654        F  0.18271356  0.91918528  0.11793795    -0.15300
F655        F  0.27514290  0.93730203  0.96758289    -0.15300
F656        F  0.24292828  0.98503090  0.01109562    -0.13000
loop_ 
_geom_bond_atom_site_label_1 
_geom_bond_atom_site_label_2 
_geom_bond_distance 
_geom_bond_site_symmetry_2 
_ccdc_geom_bond_type 
N1            C6   1.350       .  A
N1            C5   1.349       .  A
N1           H33   1.042       .  S
N2            C9   1.349       .  A
N2           C10   1.347       .  A
N3            C8   1.354       .  A
N3            C7   1.355   1_545  A
N3           H34   1.036       .  S
N4           C11   1.350       .  A
N4           C12   1.347       .  A
C5           C13   1.384       .  A
C5           C21   1.408   1_545  A
C6           C22   1.411       .  A
C6           C14   1.390       .  A
C7           C15   1.384       .  A
C7           C24   1.415       .  A
C8           C23   1.423       .  A
C8           C16   1.391       .  A
C9           C21   1.410       .  A
C9           C17   1.384       .  A
C10          C24   1.412       .  A
C10          C18   1.389       .  A
C11          C19   1.383       .  A
C11          C22   1.409       .  A
C12          C20   1.390       .  A
C12          C23   1.417       .  A
C13          C14   1.373       .  A
C13          H25   1.082   1_455  S
C14          H26   1.080   1_455  S
C15          C16   1.376   1_565  A
C15          H27   1.082       .  S
C16          H28   1.082       .  S
C17          C18   1.371       .  A
C17          H29   1.082   1_554  S
C18          H30   1.082   1_554  S
C19          C20   1.374       .  A
C19          H31   1.082       .  S
C20          H32   1.082       .  S
C21          C56   1.523       .  S
C22         C638   1.479       .  S
C23         C628   1.482       .  S
C24         C648   1.482       .  S
N35          C40   1.351   1_556  A
N35          C39   1.351       .  A
N35          H67   1.041   1_455  S
N36          C43   1.349       .  A
N36          C44   1.348       .  A
N37          C42   1.354       .  A
N37          C41   1.354       .  A
N37          H68   1.040       .  S
N38          C45   1.348       .  A
N38          C46   1.347       .  A
C39          C47   1.389   1_556  A
C39          C55   1.412       .  A
C40          C56   1.410       .  A
C40          C48   1.384       .  A
C41          C49   1.391       .  A
C41          C58   1.423       .  A
C42          C57   1.411   1_556  A
C42          C50   1.383       .  A
C43          C55   1.408   1_655  A
C43          C51   1.383       .  A
C44          C58   1.418       .  A
C44          C52   1.390       .  A
C45          C53   1.385       .  A
C45          C56   1.410   1_655  A
C46          C54   1.388       .  A
C46          C57   1.409       .  A
C47          C48   1.372       .  A
C47          H59   1.081       .  S
C48          H60   1.082       .  S
C49          C50   1.377       .  A
C49          H61   1.082       .  S
C50          H62   1.082       .  S
C51          C52   1.374       .  A
C51          H63   1.082       .  S
C52          H64   1.082       .  S
C53          C54   1.371       .  A
C53          H65   1.082       .  S
C54          H66   1.082       .  S
C55         C611   1.480       .  S
C57         C618   1.481       .  S
C58         C598   1.489       .  S
In69         O71   2.268       .  S
In69         O72   2.208       .  S
In69         O80   2.249       .  S
In69         O74   2.215       .  S
In69         O76   2.237       .  S
In69         O77   2.250       .  S
In69         O78   2.247       .  S
In69         O81   2.243       .  S
C70         C561   1.477       .  S
C70          O76   1.258       .  A
C70          O78   1.258       .  A
O71          C79   1.263       .  A
O72          C79   1.258       .  A
C73         C578   1.476       .  S
C73          O80   1.265       .  A
C73          O74   1.259       .  A
C75         C568   1.481       .  S
C75          O77   1.262       .  A
C75          O81   1.260       .  A
C79         C591   1.472       .  S
In82         O84   2.215       .  S
In82         O85   2.255       .  S
In82         O93   2.247       .  S
In82         O87   2.221       .  S
In82         O89   2.236       .  S
In82         O90   2.205       .  S
In82         O91   2.241       .  S
In82         O94   2.271       .  S
C83         C641   1.475       .  S
C83          O89   1.259       .  A
C83          O91   1.259       .  A
O84          C92   1.258       .  A
O85          C92   1.263       .  A
C86         C548   1.478       .  S
C86          O93   1.265       .  A
C86          O87   1.260       .  A
C88         C588   1.471       .  S
C88          O90   1.258       .  A
C88          O94   1.263       .  A
C92         C621   1.475       .  S
N95         C100   1.350       .  A
N95          C99   1.351       .  A
N95         H127   1.042       .  S
N96         C103   1.348       .  A
N96         C104   1.347       .  A
N97         C102   1.356       .  A
N97         C101   1.356       .  A
N97         H128   1.038       .  S
N98         C105   1.351       .  A
N98         C106   1.348       .  A
C99         C107   1.388       .  A
C99         C115   1.410       .  A
C100        C116   1.410       .  A
C100        C108   1.385       .  A
C101        C109   1.390       .  A
C101        C118   1.425       .  A
C102        C117   1.416       .  A
C102        C110   1.384       .  A
C103        C115   1.406       .  A
C103        C111   1.383       .  A
C104        C118   1.415       .  A
C104        C112   1.390       .  A
C105        C113   1.385       .  A
C105        C116   1.412       .  A
C106        C114   1.389       .  A
C106        C117   1.415       .  A
C107        C108   1.373       .  A
C107        H119   1.081   1_455  S
C108        H120   1.082   1_455  S
C109        C110   1.377       .  A
C109        H121   1.082       .  S
C110        H122   1.082       .  S
C111        C112   1.373       .  A
C111        H123   1.082       .  S
C112        H124   1.082       .  S
C113        C114   1.371       .  A
C113        H125   1.082       .  S
C114        H126   1.081       .  S
C115        C558   1.477   1_455  S
C116        C149   1.526       .  S
C117        C541   1.486       .  S
C118        C528   1.488       .  S
N129        C134   1.353       .  A
N129        C133   1.350       .  A
N129        H161   1.042   1_454  S
N130        C137   1.349       .  A
N130        C138   1.349       .  A
N131        C136   1.352       .  A
N131        C135   1.354   1_556  A
N131        H162   1.039   1_556  S
N132        C139   1.348       .  A
N132        C140   1.345       .  A
C133        C141   1.384       .  A
C133        C149   1.410       .  A
C134        C150   1.412   1_554  A
C134        C142   1.388       .  A
C135        C143   1.384   1_554  A
C135        C152   1.412       .  A
C136        C151   1.419       .  A
C136        C144   1.390       .  A
C137        C149   1.411   1_655  A
C137        C145   1.385       .  A
C138        C152   1.412       .  A
C138        C146   1.388       .  A
C139        C147   1.383       .  A
C139        C150   1.404   1_655  A
C140        C148   1.390       .  A
C140        C151   1.411       .  A
C141        C142   1.374       .  A
C141        H153   1.082       .  S
C142        H154   1.081       .  S
C143        C144   1.376       .  A
C143        H155   1.082       .  S
C144        H156   1.082       .  S
C145        C146   1.370       .  A
C145        H157   1.082       .  S
C146        H158   1.081       .  S
C147        C148   1.372       .  A
C147        H159   1.082       .  S
C148        H160   1.082       .  S
C150        C518   1.479       .  S
C151        C508   1.473       .  S
C152        C571   1.483       .  S
In163       O165   2.220       .  S
In163       O166   2.266       .  S
In163       O174   2.252       .  S
In163       O168   2.214       .  S
In163       O170   2.244       .  S
In163       O171   2.254   1_556  S
In163       O172   2.260       .  S
In163       O175   2.237       .  S
C164        C608   1.482       .  S
C164        O170   1.257       .  A
C164        O172   1.258       .  A
O165        C173   1.258       .  A
O166        C173   1.262       .  A
C167        C488   1.480       .  S
C167        O174   1.266       .  A
C167        O168   1.261       .  A
C169        C651   1.477   1_556  S
C169        O171   1.262   1_556  A
C169        O175   1.258       .  A
C173        C498   1.474       .  S
In176       O178   2.235       .  S
In176       O179   2.264   1_556  S
In176       O187   2.244       .  S
In176       O181   2.203       .  S
In176       O183   2.239       .  S
In176       O184   2.269       .  S
In176       O185   2.252       .  S
In176       O188   2.221       .  S
C177        C521   1.478       .  S
C177        O183   1.257       .  A
C177        O185   1.259       .  A
O178        C186   1.258   1_556  A
O179        C186   1.263       .  A
C180        C478   1.471       .  S
C180        O187   1.266       .  A
C180        O181   1.261       .  A
C182        C501   1.476       .  S
C182        O184   1.263       .  A
C182        O188   1.257       .  A
C186        C538   1.481       .  S
N189        C194   1.351       .  A
N189        C193   1.350       .  A
N189        H221   1.042       .  S
N190        C197   1.352       .  A
N190        C198   1.350       .  A
N191        C196   1.356       .  A
N191        C195   1.356       .  A
N191        H222   1.037       .  S
N192        C199   1.350       .  A
N192        C200   1.347       .  A
C193        C201   1.384       .  A
C193        C209   1.409       .  A
C194        C210   1.411       .  A
C194        C202   1.389       .  A
C195        C203   1.385       .  A
C195        C212   1.418       .  A
C196        C211   1.425       .  A
C196        C204   1.390       .  A
C197        C209   1.416       .  A
C197        C205   1.385       .  A
C198        C212   1.417       .  A
C198        C206   1.389       .  A
C199        C207   1.383       .  A
C199        C210   1.408       .  A
C200        C208   1.390       .  A
C200        C211   1.417       .  A
C201        C202   1.373       .  A
C201        H213   1.082       .  S
C202        H214   1.080       .  S
C203        C204   1.377       .  A
C203        H215   1.082       .  S
C204        H216   1.082       .  S
C205        C206   1.370       .  A
C205        H217   1.082       .  S
C206        H218   1.081       .  S
C207        C208   1.374       .  A
C207        H219   1.082       .  S
C208        H220   1.082       .  S
C209        C243   1.529       .  S
C210        C458   1.480       .  S
C211        C491   1.486       .  S
C212        C468   1.489       .  S
N223        C228   1.351       .  A
N223        C227   1.350   1_545  A
N223        H255   1.044   1_545  S
N224        C231   1.352       .  A
N224        C232   1.350       .  A
N225        C230   1.355       .  A
N225        C229   1.356   1_545  A
N225        H256   1.039       .  S
N226        C233   1.351       .  A
N226        C234   1.347       .  A
C227        C235   1.385   1_565  A
C227        C243   1.407       .  A
C228        C244   1.406       .  A
C228        C236   1.387       .  A
C229        C237   1.384       .  A
C229        C246   1.415       .  A
C230        C245   1.425       .  A
C230        C238   1.391   1_545  A
C231        C243   1.415       .  A
C231        C239   1.386       .  A
C232        C246   1.413       .  A
C232        C240   1.387       .  A
C233        C241   1.381       .  A
C233        C244   1.405       .  A
C234        C242   1.392       .  A
C234        C245   1.419       .  A
C235        C236   1.372       .  A
C235        H247   1.082       .  S
C236        H248   1.081       .  S
C237        C238   1.375       .  A
C237        H249   1.082       .  S
C238        H250   1.082   1_565  S
C239        C240   1.371       .  A
C239        H251   1.082       .  S
C240        H252   1.082       .  S
C241        C242   1.374       .  A
C241        H253   1.082       .  S
C242        H254   1.082       .  S
C244        C438   1.483       .  S
C245        C551   1.486       .  S
C246        C448   1.487       .  S
In257       O259   2.236       .  S
In257       O260   2.277       .  S
In257       O268   2.262       .  S
In257       O262   2.223       .  S
In257       O264   2.241       .  S
In257       O265   2.279       .  S
In257       O266   2.248       .  S
In257       O269   2.216       .  S
C258        C408   1.481       .  S
C258        O264   1.261       .  A
C258        O266   1.260       .  A
O259        C267   1.259       .  A
O260        C267   1.265       .  A
C261        C531   1.482       .  S
C261        O268   1.266       .  A
C261        O262   1.262       .  A
C263        C428   1.480       .  S
C263        O265   1.267       .  A
C263        O269   1.258       .  A
C267        C418   1.490       .  S
In270       O272   2.218       .  S
In270       O273   2.276       .  S
In270       O281   2.250       .  S
In270       O275   2.214       .  S
In270       O277   2.252       .  S
In270       O278   2.256       .  S
In270       O279   2.242       .  S
In270       O282   2.246       .  S
C271        C441   1.482       .  S
C271        O277   1.260       .  A
C271        O279   1.259       .  A
O272        C280   1.257       .  A
O273        C280   1.264       .  A
C274        C631   1.476       .  S
C274        O281   1.265       .  A
C274        O275   1.260       .  A
C276        C471   1.487       .  S
C276        O278   1.262       .  A
C276        O282   1.260       .  A
C280        C431   1.477       .  S
N283        C288   1.351       .  A
N283        C287   1.347       .  A
N283        H315   1.043       .  S
N284        C291   1.351       .  A
N284        C292   1.349       .  A
N285        C290   1.355       .  A
N285        C289   1.358       .  A
N285        H316   1.037       .  S
N286        C293   1.350       .  A
N286        C294   1.345       .  A
C287        C295   1.383       .  A
C287        C303   1.403       .  A
C288        C304   1.411       .  A
C288        C296   1.390       .  A
C289        C297   1.384       .  A
C289        C306   1.420       .  A
C290        C305   1.426       .  A
C290        C298   1.390       .  A
C291        C303   1.414       .  A
C291        C299   1.385       .  A
C292        C306   1.416       .  A
C292        C300   1.389       .  A
C293        C301   1.382       .  A
C293        C304   1.406       .  A
C294        C302   1.391       .  A
C294        C305   1.416       .  A
C295        C296   1.373       .  A
C295        H307   1.082       .  S
C296        H308   1.080       .  S
C297        C298   1.378       .  A
C297        H309   1.082       .  S
C298        H310   1.082       .  S
C299        C300   1.370       .  A
C299        H311   1.082       .  S
C300        H312   1.081       .  S
C301        C302   1.373       .  A
C301        H313   1.082       .  S
C302        H314   1.082       .  S
C303        C337   1.525       .  S
C304        C398   1.481       .  S
C305        C481   1.480       .  S
C306        C421   1.493       .  S
N317        C322   1.351       .  A
N317        C321   1.348       .  A
N317        H349   1.043       .  S
N318        C325   1.351       .  A
N318        C326   1.349       .  A
N319        C324   1.355       .  A
N319        C323   1.356       .  A
N319        H350   1.036       .  S
N320        C327   1.350       .  A
N320        C328   1.346       .  A
C321        C329   1.384       .  A
C321        C337   1.406       .  A
C322        C338   1.409       .  A
C322        C330   1.388       .  A
C323        C331   1.385       .  A
C323        C340   1.416       .  A
C324        C339   1.424       .  A
C324        C332   1.390       .  A
C325        C337   1.416       .  A
C325        C333   1.386       .  A
C326        C340   1.417       .  A
C326        C334   1.389       .  A
C327        C335   1.382       .  A
C327        C338   1.406       .  A
C328        C336   1.391       .  A
C328        C339   1.417       .  A
C329        C330   1.374       .  A
C329        H341   1.082       .  S
C330        H342   1.080       .  S
C331        C332   1.375       .  A
C331        H343   1.082       .  S
C332        H344   1.082       .  S
C333        C334   1.371       .  A
C333        H345   1.082       .  S
C334        H346   1.082       .  S
C335        C336   1.374       .  A
C335        H347   1.082       .  S
C336        H348   1.082       .  S
C338        C411   1.484       .  S
C339        C581   1.483       .  S
C340        C388   1.485       .  S
In351       O353   2.202       .  S
In351       O354   2.262       .  S
In351       O362   2.238       .  S
In351       O356   2.207       .  S
In351       O358   2.233       .  S
In351       O359   2.250       .  S
In351       O360   2.241       .  S
In351       O363   2.227       .  S
C352        C401   1.475       .  S
C352        O358   1.259       .  A
C352        O360   1.260       .  A
O353        C361   1.258       .  A
O354        C361   1.264       .  A
C355        C511   1.468       .  S
C355        O362   1.264       .  A
C355        O356   1.260       .  A
C357        C391   1.478       .  S
C357        O359   1.264       .  A
C357        O363   1.259       .  A
C361        C378   1.475       .  S
In364       O366   2.225       .  S
In364       O367   2.268       .  S
In364       O375   2.254       .  S
In364       O369   2.219       .  S
In364       O371   2.240       .  S
In364       O372   2.269       .  S
In364       O373   2.250       .  S
In364       O376   2.201       .  S
C365        C461   1.480       .  S
C365        O371   1.260       .  A
C365        O373   1.259       .  A
O366        C374   1.258       .  A
O367        C374   1.264       .  A
C368        C601   1.481       .  S
C368        O375   1.266       .  A
C368        O369   1.261       .  A
C370        C381   1.477       .  S
C370        O372   1.266       .  A
C370        O376   1.258       .  A
C374        C451   1.481       .  S
C377        C378   1.408       .  A
C377        C382   1.404       .  A
C377        F384   1.358       .  S
C378        C379   1.406       .  A
C379        C380   1.390       .  A
C379        F386   1.359       .  S
C380        C381   1.406       .  A
C380        F385   1.358       .  S
C381        C382   1.408       .  A
C382        F383   1.357       .  S
C387        C388   1.402       .  A
C387        C392   1.399       .  A
C387        F394   1.358       .  S
C388        C389   1.404       .  A
C389        C390   1.397       .  A
C389        F396   1.358       .  S
C390        C391   1.407       .  A
C390        F395   1.358       .  S
C391        C392   1.410       .  A
C392        F393   1.358       .  S
C397        C398   1.403       .  A
C397        C402   1.399       .  A
C397        F404   1.358       .  S
C398        C399   1.403       .  A
C399        C400   1.394       .  A
C399        F406   1.358       .  S
C400        C401   1.407       .  A
C400        F405   1.358       .  S
C401        C402   1.409       .  A
C402        F403   1.358       .  S
C407        C408   1.411       .  A
C407        C412   1.401       .  A
C407        F414   1.358       .  S
C408        C409   1.408       .  A
C409        C410   1.396       .  A
C409        F416   1.358       .  S
C410        C411   1.403       .  A
C410        F415   1.358       .  S
C411        C412   1.403       .  A
C412        F413   1.358       .  S
C417        C418   1.410       .  A
C417        C422   1.404       .  A
C417        F424   1.357       .  S
C418        C419   1.412       .  A
C419        C420   1.401       .  A
C419        F426   1.358       .  S
C420        C421   1.404       .  A
C420        F425   1.358       .  S
C421        C422   1.406       .  A
C422        F423   1.358       .  S
C427        C428   1.408       .  A
C427        C432   1.406       .  A
C427        F434   1.357       .  S
C428        C429   1.406       .  A
C429        C430   1.395       .  A
C429        F436   1.358       .  S
C430        C431   1.405       .  A
C430        F435   1.359       .  S
C431        C432   1.407       .  A
C432        F433   1.357       .  S
C437        C438   1.404       .  A
C437        C442   1.398       .  A
C437        F444   1.358       .  S
C438        C439   1.402       .  A
C439        C440   1.400       .  A
C439        F446   1.357       .  S
C440        C441   1.411       .  A
C440        F445   1.357       .  S
C441        C442   1.409       .  A
C442        F443   1.358       .  S
C447        C448   1.402       .  A
C447        C452   1.399       .  A
C447        F454   1.357       .  S
C448        C449   1.406       .  A
C449        C450   1.401       .  A
C449        F456   1.358       .  S
C450        C451   1.408       .  A
C450        F455   1.358       .  S
C451        C452   1.409       .  A
C452        F453   1.358       .  S
C457        C458   1.403       .  A
C457        C462   1.401       .  A
C457        F464   1.358       .  S
C458        C459   1.402       .  A
C459        C460   1.393       .  A
C459        F466   1.358       .  S
C460        C461   1.408       .  A
C460        F465   1.358       .  S
C461        C462   1.412       .  A
C462        F463   1.358       .  S
C467        C468   1.404   1_545  A
C467        C472   1.400       .  A
C467        F474   1.358       .  S
C468        C469   1.404       .  A
C469        C470   1.401       .  A
C469        F476   1.358       .  S
C470        C471   1.412   1_565  A
C470        F475   1.358       .  S
C471        C472   1.410       .  A
C472        F473   1.358       .  S
C477        C478   1.407       .  A
C477        C482   1.399       .  A
C477        F484   1.358       .  S
C478        C479   1.408       .  A
C479        C480   1.392       .  A
C479        F486   1.358       .  S
C480        C481   1.400       .  A
C480        F485   1.358       .  S
C481        C482   1.406       .  A
C482        F483   1.358       .  S
C487        C488   1.410       .  A
C487        C492   1.396       .  A
C487        F494   1.358       .  S
C488        C489   1.409       .  A
C489        C490   1.400       .  A
C489        F496   1.358       .  S
C490        C491   1.406       .  A
C490        F495   1.358       .  S
C491        C492   1.401       .  A
C492        F493   1.358       .  S
C497        C498   1.407       .  A
C497        C502   1.402   1_556  A
C497        F504   1.358   1_556  S
C498        C499   1.405       .  A
C499        C500   1.395       .  A
C499        F506   1.359       .  S
C500        C501   1.406       .  A
C500        F505   1.358       .  S
C501        C502   1.406   1_556  A
C502        F503   1.357       .  S
C507        C508   1.403       .  A
C507        C512   1.396       .  A
C507        F514   1.358       .  S
C508        C509   1.399       .  A
C509        C510   1.391       .  A
C509        F516   1.358       .  S
C510        C511   1.407       .  A
C510        F515   1.358       .  S
C511        C512   1.407       .  A
C512        F513   1.358       .  S
C517        C518   1.402       .  A
C517        C522   1.400       .  A
C517        F524   1.357   1_556  S
C518        C519   1.402       .  A
C519        C520   1.393       .  A
C519        F526   1.359       .  S
C520        C521   1.408       .  A
C520        F525   1.358       .  S
C521        C522   1.410       .  A
C522        F523   1.357   1_556  S
C527        C528   1.401       .  A
C527        C532   1.396       .  A
C527        F534   1.358       .  S
C528        C529   1.407       .  A
C529        C530   1.403       .  A
C529        F536   1.358       .  S
C530        C531   1.409       .  A
C530        F535   1.358       .  S
C531        C532   1.409       .  A
C532        F533   1.357       .  S
C537        C538   1.410       .  A
C537        C542   1.400       .  A
C537        F544   1.358   1_554  S
C538        C539   1.407       .  A
C539        C540   1.400       .  A
C539        F546   1.357       .  S
C540        C541   1.405       .  A
C540        F545   1.358       .  S
C541        C542   1.403       .  A
C542        F543   1.358       .  S
C547        C548   1.410       .  A
C547        C552   1.397       .  A
C547        F554   1.358       .  S
C548        C549   1.407       .  A
C549        C550   1.397       .  A
C549        F556   1.358       .  S
C550        C551   1.405       .  A
C550        F555   1.358       .  S
C551        C552   1.403       .  A
C552        F553   1.358       .  S
C557        C558   1.402       .  A
C557        C562   1.400       .  A
C557        F564   1.357   1_655  S
C558        C559   1.401       .  A
C559        C560   1.392       .  A
C559        F566   1.359       .  S
C560        C561   1.408       .  A
C560        F565   1.358       .  S
C561        C562   1.410       .  A
C562        F563   1.358       .  S
C567        C568   1.410       .  A
C567        C572   1.401       .  A
C567        F574   1.358       .  S
C568        C569   1.408       .  A
C569        C570   1.397       .  A
C569        F576   1.358       .  S
C570        C571   1.403       .  A
C570        F575   1.358       .  S
C571        C572   1.403       .  A
C572        F573   1.358       .  S
C577        C578   1.407       .  A
C577        C582   1.397       .  A
C577        F584   1.358       .  S
C578        C579   1.410       .  A
C579        C580   1.396       .  A
C579        F586   1.358       .  S
C580        C581   1.401       .  A
C580        F585   1.358       .  S
C581        C582   1.404       .  A
C582        F583   1.358       .  S
C587        C588   1.407       .  A
C587        C592   1.405       .  A
C587        F594   1.358       .  S
C588        C589   1.403       .  A
C589        C590   1.391       .  A
C589        F596   1.358       .  S
C590        C591   1.404       .  A
C590        F595   1.358       .  S
C591        C592   1.407       .  A
C592        F593   1.358       .  S
C597        C598   1.403       .  A
C597        C602   1.395       .  A
C597        F604   1.358       .  S
C598        C599   1.407       .  A
C599        C600   1.400       .  A
C599        F606   1.358       .  S
C600        C601   1.408       .  A
C600        F605   1.358       .  S
C601        C602   1.410       .  A
C602        F603   1.358       .  S
C607        C608   1.409       .  A
C607        C612   1.394       .  A
C607        F614   1.358       .  S
C608        C609   1.411       .  A
C609        C610   1.402       .  A
C609        F616   1.357       .  S
C610        C611   1.403       .  A
C610        F615   1.358       .  S
C611        C612   1.401       .  A
C612        F613   1.359       .  S
C617        C618   1.404   1_545  A
C617        C622   1.399       .  A
C617        F624   1.358   1_554  S
C618        C619   1.402       .  A
C619        C620   1.396       .  A
C619        F626   1.358       .  S
C620        C621   1.408   1_565  A
C620        F625   1.358       .  S
C621        C622   1.408       .  A
C622        F623   1.358       .  S
C627        C628   1.405       .  A
C627        C632   1.399       .  A
C627        F634   1.358       .  S
C628        C629   1.400       .  A
C629        C630   1.394       .  A
C629        F636   1.358       .  S
C630        C631   1.409       .  A
C630        F635   1.358       .  S
C631        C632   1.407       .  A
C632        F633   1.358       .  S
C637        C638   1.403   1_655  A
C637        C642   1.400       .  A
C637        F644   1.358   1_655  S
C638        C639   1.402   1_455  A
C639        C640   1.393       .  A
C639        F646   1.359       .  S
C640        C641   1.407       .  A
C640        F645   1.358       .  S
C641        C642   1.409       .  A
C642        F643   1.358       .  S
C647        C648   1.404       .  A
C647        C652   1.397       .  A
C647        F654   1.358       .  S
C648        C649   1.402       .  A
C649        C650   1.400       .  A
C649        F656   1.357       .  S
C650        C651   1.409       .  A
C650        F655   1.358   1_554  S
C651        C652   1.407       .  A
C652        F653   1.358       .  S
