geometry optimzed in LAMMPS
_audit_creation_date              2020-11-30 
_audit_creation_method            'lammps2cif' 
_symmetry_space_group_name_H-M    'P1' 
_symmetry_Int_Tables_number       1 
_symmetry_cell_setting            triclinic 
loop_ 
_symmetry_equiv_pos_as_xyz 
  x,y,z 
_cell_length_a                    39.36525702215434 
_cell_length_b                    39.422241866523315 
_cell_length_c                    39.3822961422124 
_cell_angle_alpha                 90.01603205147684 
_cell_angle_beta                  90.17307259405305 
_cell_angle_gamma                 90.03702465614734 
loop_ 
_atom_site_label 
_atom_site_type_symbol 
_atom_site_fract_x 
_atom_site_fract_y 
_atom_site_fract_z 
_atom_site_charge 
N1          N  0.55135950  0.63984597  0.00507035    -0.27170
N2          N  0.56990325  0.66763326  0.00230342    -0.35020
C3          C  0.60285863  0.65869134  0.99911560     0.01180
C4          C  0.60473366  0.62354102  0.99930566     0.07200
C5          C  0.57164881  0.61262880  0.00351830    -0.05900
H6          H  0.62363172  0.67631603  0.99561380     0.07870
H7          H  0.56280041  0.58666542  0.00474453     0.09070
Cu8        Cu  0.54736040  0.71533507  0.00053039     0.44170
Cu9        Cu  0.49903784  0.63927314  0.00784685     0.41990
Cu10       Cu  0.45258187  0.71545308  0.99409259     0.43880
N11         N  0.51679109  0.75837913  0.99859010    -0.34550
N12         N  0.48319677  0.75844984  0.99618096    -0.28810
C13         C  0.47217080  0.79074869  0.99628189    -0.04910
C14         C  0.50005581  0.81191532  0.99882608     0.07310
C15         C  0.52787515  0.79062176  0.00014832     0.01110
H16         H  0.44575183  0.79822522  0.99473379     0.08760
H17         H  0.55425682  0.79797480  0.00227773     0.07840
N18         N  0.42901684  0.66847219  0.99851469    -0.36000
N19         N  0.44671816  0.64076734  0.00503876    -0.28180
C20         C  0.42543608  0.61447113  0.00858936    -0.03420
C21         C  0.39261098  0.62599489  0.00408169     0.05190
C22         C  0.39570679  0.66036636  0.99732296     0.03280
H23         H  0.43332767  0.58869125  0.01376088     0.08390
H24         H  0.37533947  0.67819734  0.99268239     0.07220
N25         N  0.72441828  0.36382747  0.00439847    -0.27170
N26         N  0.75242522  0.34542877  0.00379367    -0.35020
C27         C  0.74382342  0.31237345  0.00105401     0.01180
C28         C  0.70869153  0.31030634  0.99924480     0.07200
C29         C  0.69737182  0.34335752  0.00175620    -0.05900
H30         H  0.76171752  0.29163503  0.99931590     0.07870
H31         H  0.67128901  0.35199241  0.00128818     0.09070
Cu32       Cu  0.79998164  0.36834288  0.00403349     0.44170
Cu33       Cu  0.72366424  0.41604483  0.00670623     0.41990
Cu34       Cu  0.80015728  0.46363440  0.00340692     0.43880
N35         N  0.84288819  0.39910640  0.00191415    -0.34550
N36         N  0.84293962  0.43273832  0.00162997    -0.28810
C37         C  0.87524359  0.44375277  0.00021224    -0.04910
C38         C  0.89644006  0.41586275  0.99957792     0.07310
C39         C  0.87516256  0.38801576  0.00067053     0.01110
H40         H  0.88271799  0.47017064  0.99995089     0.08760
H41         H  0.88256064  0.36158520  0.00082847     0.07840
N42         N  0.75268708  0.48665936  0.00422265    -0.36000
N43         N  0.72466021  0.46829497  0.00535247    -0.28180
C44         C  0.69763103  0.48881671  0.00354972    -0.03420
C45         C  0.70889536  0.52194016  0.00128847     0.05190
C46         C  0.74410517  0.51974470  0.00187600     0.03280
H47         H  0.67154183  0.48015232  0.00323649     0.08390
H48         H  0.76205680  0.54037563  0.99937945     0.07220
N49         N  0.55163669  0.19274105  0.00310992    -0.27170
N50         N  0.56987545  0.16464897  0.00437268    -0.35020
C51         C  0.60312645  0.17289643  0.00324306     0.01180
C52         C  0.60565292  0.20790182  0.00088586     0.07200
C53         C  0.57252988  0.21949096  0.00082046    -0.05900
H54         H  0.62373788  0.15476624  0.00286438     0.07870
H55         H  0.56417927  0.24556565  0.99885720     0.09070
Cu56       Cu  0.54731258  0.11705196  0.00476736     0.44170
Cu57       Cu  0.49916109  0.19411177  0.00314172     0.41990
Cu58       Cu  0.45301702  0.11632104  0.00054912     0.43880
N59         N  0.51739841  0.07371112  0.00210781    -0.34550
N60         N  0.48377608  0.07347377  0.00056057    -0.28810
C61         C  0.47296603  0.04114703  0.99906327    -0.04910
C62         C  0.50102879  0.02012055  0.99961410     0.07310
C63         C  0.52875419  0.04153891  0.00155150     0.01110
H64         H  0.44657697  0.03354257  0.99778338     0.08760
H65         H  0.55524808  0.03432042  0.00264878     0.07840
N66         N  0.42921892  0.16333688  0.00109558    -0.36000
N67         N  0.44671948  0.19193675  0.00224560    -0.28180
C68         C  0.42511485  0.21825673  0.00242541    -0.03420
C69         C  0.39244196  0.20567152  0.00130890     0.05190
C70         C  0.39577337  0.17074300  0.00046253     0.03280
H71         H  0.43264703  0.24464744  0.00323326     0.08390
H72         H  0.37553496  0.15218656  0.99948645     0.07220
N73         N  0.27745059  0.36298836  0.99928392    -0.27170
N74         N  0.24878126  0.34551319  0.99970888    -0.35020
C75         C  0.25609637  0.31211063  0.99979789     0.01180
C76         C  0.29103758  0.30868995  0.99931064     0.07200
C77         C  0.30375766  0.34131594  0.99899642    -0.05900
H78         H  0.23744412  0.29194676  0.00008897     0.07870
H79         H  0.33021395  0.34875762  0.99860225     0.09070
Cu80       Cu  0.20160430  0.36887976  0.99979978     0.44170
Cu81       Cu  0.27964329  0.41550969  0.99902458     0.41990
Cu82       Cu  0.20166023  0.46245377  0.99412035     0.43880
N83         N  0.15838180  0.39896187  0.99935149    -0.34550
N84         N  0.15838902  0.43249207  0.99734093    -0.28810
C85         C  0.12610479  0.44360285  0.99773745    -0.04910
C86         C  0.10485971  0.41579163  0.99999582     0.07310
C87         C  0.12609836  0.38792869  0.00094781     0.01110
H88         H  0.11868223  0.46998452  0.99623553     0.08760
H89         H  0.11867984  0.36154287  0.00254346     0.07840
N90         N  0.24901998  0.48560444  0.99464791    -0.36000
N91         N  0.27745161  0.46800861  0.99757783    -0.28180
C92         C  0.30377047  0.48954794  0.99982517    -0.03420
C93         C  0.29146563  0.52228812  0.99778278     0.05190
C94         C  0.25659839  0.51898114  0.99448032     0.03280
H95         H  0.32998506  0.48194493  0.00307161     0.08390
H96         H  0.23809031  0.53922637  0.99334428     0.07220
N97         N  0.99327626  0.36211266  0.72467411    -0.27170
N98         N  0.99727515  0.34422441  0.75273677    -0.35020
C99         C  0.00165311  0.31132694  0.74440536     0.01180
C100        C  0.00086431  0.30884861  0.70934193     0.07200
C101        C  0.99542017  0.34144170  0.69774849    -0.05900
H102        H  0.00655098  0.29112028  0.76234223     0.07870
H103        H  0.99404356  0.34968013  0.67157202     0.09070
Cu104      Cu  0.99973418  0.36767747  0.79975248     0.44170
Cu105      Cu  0.98850642  0.41417166  0.72387184     0.41990
Cu106      Cu  0.00383004  0.46264983  0.79881693     0.43880
N107        N  0.00211053  0.39867934  0.84224190    -0.34550
N108        N  0.00360711  0.43227106  0.84203416    -0.28810
C109        C  0.00388364  0.44348590  0.87429213    -0.04910
C110        C  0.00249299  0.41572566  0.89565006     0.07310
C111        C  0.00148759  0.38778758  0.87456280     0.01110
H112        H  0.00467247  0.46993414  0.88160851     0.08760
H113        H  0.99998118  0.36143518  0.88209615     0.07840
N114        N  0.99996883  0.48474644  0.75103093    -0.36000
N115        N  0.99297308  0.46625359  0.72394165    -0.28180
C116        C  0.99315164  0.48608754  0.69637523    -0.03420
C117        C  0.00138002  0.51876104  0.70616835     0.05190
C118        C  0.00496515  0.51719178  0.74122124     0.03280
H119        H  0.98852705  0.47701397  0.67085454     0.08390
H120        H  0.01200385  0.53771732  0.75807706     0.07220
N121        N  0.99326059  0.64168792  0.55265238    -0.27170
N122        N  0.00115184  0.66863921  0.57094802    -0.35020
C123        C  0.00583609  0.65900504  0.60353343     0.01180
C124        C  0.00077067  0.62418979  0.60546865     0.07200
C125        C  0.99281227  0.61430548  0.57271790    -0.05900
H126        H  0.01384222  0.67575399  0.62379706     0.07870
H127        H  0.98812363  0.58874626  0.56382896     0.09070
Cu128      Cu  0.00678748  0.71582473  0.54826793     0.44170
Cu129      Cu  0.98773174  0.64171778  0.50058543     0.41990
Cu130      Cu  0.00499034  0.71577883  0.45296789     0.43880
N131        N  0.00712569  0.75855323  0.51738284    -0.34550
N132        N  0.00647063  0.75850204  0.48372627    -0.28810
C133        C  0.00531007  0.79071026  0.47260756    -0.04910
C134        C  0.00509870  0.81193639  0.50047342     0.07310
C135        C  0.00637834  0.79081771  0.52840650     0.01110
H136        H  0.00417258  0.79805883  0.44615754     0.08760
H137        H  0.00625475  0.79828307  0.55484744     0.07840
N138        N  0.99943012  0.66867687  0.43021256    -0.36000
N139        N  0.99223470  0.64153364  0.44845186    -0.28180
C140        C  0.99229134  0.61415409  0.42830989    -0.03420
C141        C  0.00017113  0.62434975  0.39570381     0.05190
C142        C  0.00415869  0.65923398  0.39763172     0.03280
H143        H  0.98829270  0.58845732  0.43709018     0.08390
H144        H  0.01166203  0.67613962  0.37735537     0.07220
N145        N  0.00718918  0.36471027  0.27519790    -0.27170
N146        N  0.00310574  0.34584442  0.24781636    -0.35020
C147        C  0.00026030  0.31305941  0.25739706     0.01180
C148        C  0.00219774  0.31171032  0.29260436     0.07200
C149        C  0.00720020  0.34489284  0.30275610    -0.05900
H150        H  0.99578816  0.29207295  0.24024783     0.07870
H151        H  0.00983257  0.35421955  0.32846587     0.09070
Cu152      Cu  0.99998197  0.36843876  0.20020298     0.44170
Cu153      Cu  0.00866727  0.41679753  0.27496391     0.41990
Cu154      Cu  0.00100456  0.46460226  0.19969128     0.43670
N155        N  0.99913445  0.39947784  0.15742883    -0.34550
N156        N  0.99952305  0.43313132  0.15727259    -0.28810
C157        C  0.99956379  0.44401557  0.12492138    -0.04910
C158        C  0.99925166  0.41605944  0.10381296     0.07310
C159        C  0.99893187  0.38829180  0.12516521     0.01110
H160        H  0.00013187  0.47039927  0.11736940     0.08760
H161        H  0.99890147  0.36183496  0.11783965     0.07840
N162        N  0.00384930  0.48756553  0.24711953    -0.36000
N163        N  0.00648171  0.46886245  0.27474862    -0.28180
C164        C  0.00812300  0.48903443  0.30199097    -0.03420
C165        C  0.00675577  0.52246349  0.29139255     0.05190
C166        C  0.00397030  0.52061825  0.25618595     0.03280
H167        H  0.01020861  0.47985461  0.32780069     0.08390
H168        H  0.00304572  0.54150262  0.23842393     0.07220
N169        N  0.00912805  0.19108849  0.55272736    -0.27170
N170        N  0.00431973  0.16326976  0.57072534    -0.35020
C171        C  0.00302809  0.17161641  0.60392445     0.01180
C172        C  0.00743202  0.20644802  0.60665623     0.07200
C173        C  0.01123360  0.21777859  0.57367835    -0.05900
H174        H  0.99997211  0.15363432  0.62443285     0.07870
H175        H  0.01510028  0.24367933  0.56544628     0.09070
Cu176      Cu  0.00140116  0.11612557  0.54749086     0.44170
Cu177      Cu  0.01224009  0.19198713  0.50051287     0.41990
Cu178      Cu  0.00552708  0.11602021  0.45232780     0.43880
N179        N  0.00169493  0.07330495  0.51676601    -0.34550
N180        N  0.00313415  0.07323332  0.48313928    -0.28810
C181        C  0.00317787  0.04093710  0.47214957    -0.04910
C182        C  0.00177365  0.01979836  0.50007116     0.07310
C183        C  0.00088772  0.04107782  0.52789765     0.01110
H184        H  0.00437863  0.03343840  0.44574905     0.08760
H185        H  0.99987261  0.03373125  0.55434718     0.07840
N186        N  0.00795996  0.16354294  0.42964125    -0.36000
N187        N  0.01074094  0.19129136  0.44820902    -0.28180
C188        C  0.00970194  0.21849156  0.42791275    -0.03420
C189        C  0.00604620  0.20767305  0.39470402     0.05190
C190        C  0.00513415  0.17249419  0.39664965     0.03280
H191        H  0.01054141  0.24443686  0.43685786     0.08390
H192        H  0.00106884  0.15485725  0.37598834     0.07220
N193        N  0.45073319  0.91146836  0.72282783    -0.27170
N194        N  0.43322058  0.90603378  0.75088647    -0.35020
C195        C  0.39990730  0.90435684  0.74306585     0.01180
C196        C  0.39651301  0.90934416  0.70845185     0.07200
C197        C  0.42914621  0.91387152  0.69649183    -0.05900
H198        H  0.37970944  0.90068459  0.76126943     0.07870
H199        H  0.43665990  0.91841522  0.67048014     0.09070
Cu200      Cu  0.45617416  0.90379077  0.79823968     0.44170
Cu201      Cu  0.50321423  0.91462954  0.72128824     0.41990
Cu202      Cu  0.54980607  0.90579076  0.79928988     0.43880
N203        N  0.48569680  0.90717765  0.84178786    -0.34550
N204        N  0.51932214  0.90786802  0.84222067    -0.28810
C205        C  0.53001019  0.91091735  0.87454601    -0.04910
C206        C  0.50180935  0.91228761  0.89533486     0.07310
C207        C  0.47417499  0.90981117  0.87378791     0.01110
H208        H  0.55637857  0.91205559  0.88230402     0.08760
H209        H  0.44762141  0.90986597  0.88080242     0.07840
N210        N  0.57318881  0.90841827  0.75217224    -0.36000
N211        N  0.55573705  0.91296043  0.72380115    -0.28180
C212        C  0.57740685  0.91532448  0.69766678    -0.03420
C213        C  0.61004704  0.91188874  0.71008122     0.05190
C214        C  0.60659712  0.90734719  0.74473013     0.03280
H215        H  0.56993995  0.91899442  0.67145967     0.08390
H216        H  0.62677242  0.90413646  0.76316091     0.07220
N217        N  0.72537459  0.91480797  0.44846137    -0.27170
N218        N  0.75364912  0.91655618  0.43055388    -0.35020
C219        C  0.74569064  0.91574087  0.39720506     0.01180
C220        C  0.71069672  0.91307278  0.39426925     0.07200
C221        C  0.69878758  0.91245020  0.42723306    -0.05900
H222        H  0.76401392  0.91551206  0.37678875     0.07870
H223        H  0.67265449  0.90970158  0.43522447     0.09070
Cu224      Cu  0.80110693  0.91666121  0.45368903     0.44170
Cu225      Cu  0.72375207  0.91368194  0.50094738     0.41990
Cu226      Cu  0.80149107  0.90755573  0.54756987     0.43880
N227        N  0.84438774  0.91450765  0.48392779    -0.34550
N228        N  0.84455148  0.91135646  0.51741786    -0.28810
C229        C  0.87691467  0.91119080  0.52847291    -0.04910
C230        C  0.89802996  0.91422653  0.50067701     0.07310
C231        C  0.87663247  0.91621980  0.47288801     0.01110
H232        H  0.88447237  0.90892401  0.55481434     0.08760
H233        H  0.88391752  0.91882642  0.44654641     0.07840
N234        N  0.75426628  0.90745602  0.57090480    -0.36000
N235        N  0.72579115  0.91076573  0.55335464    -0.28180
C236        C  0.69945699  0.91194624  0.57488465    -0.03420
C237        C  0.71185345  0.90885711  0.60754263     0.05190
C238        C  0.74672904  0.90603328  0.60426171     0.03280
H239        H  0.67318917  0.91501297  0.56732906     0.08390
H240        H  0.76523050  0.90405379  0.62453180     0.07220
N241        N  0.45116345  0.90149524  0.27462934    -0.27170
N242        N  0.43225679  0.90910767  0.24797770    -0.35020
C243        C  0.39985972  0.91349338  0.25827730     0.01180
C244        C  0.39881203  0.90883135  0.29320847     0.07200
C245        C  0.43170205  0.90067010  0.30240748    -0.05900
H246        H  0.37908757  0.92113445  0.24194359     0.07870
H247        H  0.44120907  0.89576702  0.32773476     0.09070
Cu248      Cu  0.45420247  0.91521533  0.20042429     0.44170
Cu249      Cu  0.50326751  0.89803625  0.27385524     0.41990
Cu250      Cu  0.54999121  0.91688224  0.19980482     0.43880
N251        N  0.48472478  0.91742805  0.15741553    -0.34550
N252        N  0.51841423  0.91800958  0.15720215    -0.28810
C253        C  0.52912724  0.91813094  0.12480461    -0.04910
C254        C  0.50100995  0.91759345  0.10371898     0.07310
C255        C  0.47332842  0.91721365  0.12516879     0.01110
H256        H  0.55551444  0.91817030  0.11718940     0.08760
H257        H  0.44680685  0.91636332  0.11792224     0.07840
N258        N  0.57350709  0.91016643  0.24675819    -0.36000
N259        N  0.55532908  0.90243973  0.27377134    -0.28180
C260        C  0.57592312  0.89870814  0.30060289    -0.03420
C261        C  0.60903027  0.90379631  0.29020209     0.05190
C262        C  0.60660762  0.91157139  0.25585698     0.03280
H263        H  0.56724037  0.89315479  0.32604000     0.08390
H264        H  0.62729510  0.91728025  0.23876011     0.07220
N265        N  0.27839564  0.90615841  0.44948392    -0.27170
N266        N  0.25076907  0.90921345  0.43066175    -0.35020
C267        C  0.25999489  0.91188107  0.39776707     0.01180
C268        C  0.29524152  0.91041863  0.39609110     0.07200
C269        C  0.30575619  0.90665410  0.42943069    -0.05900
H270        H  0.24244772  0.91594187  0.37698947     0.07870
H271        H  0.33162297  0.90506020  0.43865783     0.09070
Cu272      Cu  0.20289886  0.91110119  0.45267611     0.44170
Cu273      Cu  0.27899573  0.90452021  0.50178746     0.41990
Cu274      Cu  0.20221653  0.90646022  0.54776974     0.43880
N275        N  0.15983640  0.91224500  0.48313945    -0.34550
N276        N  0.15972366  0.91057912  0.51675593    -0.28810
C277        C  0.12748362  0.91207861  0.52775564    -0.04910
C278        C  0.10635135  0.91474802  0.49987179     0.07310
C279        C  0.12759451  0.91472909  0.47201521     0.01110
H280        H  0.12001207  0.91100755  0.55415309     0.08760
H281        H  0.12020035  0.91621472  0.44557232     0.07840
N282        N  0.24913192  0.90594469  0.57178208    -0.36000
N283        N  0.27755887  0.90608789  0.55407411    -0.28180
C284        C  0.30411456  0.90812134  0.57536498    -0.03420
C285        C  0.29188270  0.90902197  0.60813083     0.05190
C286        C  0.25687276  0.90742477  0.60514408     0.03280
H287        H  0.33042687  0.90910638  0.56755830     0.08390
H288        H  0.23848772  0.90826295  0.62548681     0.07220
O289        O  0.00325871  0.86504773  0.52860131    -0.72820
O290        O  0.00184701  0.96666618  0.52838448    -0.73800
O291        O  0.95149241  0.91504392  0.52874811    -0.62420
O292        O  0.05332346  0.91623479  0.52819190    -0.70830
O293        O  0.05298082  0.91605297  0.47177998    -0.70380
O294        O  0.95114141  0.91538410  0.47234788    -0.61640
O295        O  0.00178813  0.96658541  0.47197812    -0.74140
O296        O  0.00265651  0.86496831  0.47218816    -0.72920
Cu297      Cu  0.00245992  0.91580413  0.53046528     1.04560
Cu298      Cu  0.00207826  0.91577704  0.47009565     1.04330
C299        C  0.00351600  0.84904446  0.50041542     0.93380
C300        C  0.00176486  0.98261683  0.50015599     0.92520
C301        C  0.93529034  0.91494965  0.50059890     0.84660
C302        C  0.06915466  0.91589148  0.49993177     0.90930
O303        O  0.52855109  0.86500466  0.00007747    -0.72820
O304        O  0.52935689  0.96687987  0.99928299    -0.73800
O305        O  0.52897437  0.91653621  0.05050672    -0.62420
O306        O  0.52943471  0.91517548  0.94883710    -0.70830
O307        O  0.47301198  0.91534287  0.94820543    -0.70380
O308        O  0.47255558  0.91668819  0.05031754    -0.61640
O309        O  0.47293487  0.96691925  0.99878430    -0.74140
O310        O  0.47212886  0.86527123  0.99951133    -0.72920
Cu311      Cu  0.53104228  0.91591313  0.99969424     1.04560
Cu312      Cu  0.47066704  0.91611430  0.99920293     1.04330
C313        C  0.50024027  0.84913059  0.99959863     0.93380
C314        C  0.50115378  0.98290740  0.99911356     0.92520
C315        C  0.50078820  0.91689892  0.06644515     0.84660
C316        C  0.50137326  0.91456285  0.93251458     0.90930
O317        O  0.94975887  0.44400677  0.99905843    -0.72820
O318        O  0.05163072  0.44398967  0.00018872    -0.73800
O319        O  0.00135205  0.44401268  0.94879099    -0.62420
O320        O  0.00015108  0.44405944  0.05052557    -0.70830
O321        O  0.99999863  0.38771011  0.05066516    -0.70380
O322        O  0.00122934  0.38766137  0.94889376    -0.61640
O323        O  0.05155225  0.38764243  0.00044082    -0.74140
O324        O  0.94968191  0.38766094  0.99916741    -0.72920
Cu325      Cu  0.00071394  0.44599073  0.99964333     1.04560
Cu326      Cu  0.00060947  0.38568592  0.99978433     1.04330
C327        C  0.93369532  0.41584210  0.99912938     0.93380
C328        C  0.06761235  0.41580603  0.00031973     0.92520
C329        C  0.00164258  0.41581223  0.93284485     0.84660
C330        C  0.99981487  0.41592862  0.06659973     0.90930
C331        C  0.37011992  0.91420100  0.31690282    -0.00030
C332        C  0.33795173  0.90051552  0.30953572    -0.11900
C333        C  0.31202885  0.90058783  0.33410068     0.02210
C334        C  0.31841656  0.91448719  0.36663775    -0.00120
C335        C  0.34958568  0.93075199  0.37258605    -0.11840
C336        C  0.37518977  0.93085892  0.34825363     0.02090
H337        H  0.33361230  0.88826517  0.28524458     0.15070
H338        H  0.35434485  0.94300785  0.39679976     0.15070
C339        C  0.40638415  0.94850053  0.35629395     0.36720
C340        C  0.28005930  0.88467247  0.32577415     0.36630
N341        N  0.43135292  0.96259248  0.36286952    -0.43620
N342        N  0.25440861  0.87205735  0.31881206    -0.43620
C343        C  0.68968785  0.90778759  0.36352251    -0.00030
C344        C  0.66648311  0.88085580  0.36378724    -0.11900
C345        C  0.64191568  0.87756938  0.33839353     0.02210
C346        C  0.63946429  0.90223614  0.31247502    -0.00120
C347        C  0.66449497  0.92763102  0.31051264    -0.11840
C348        C  0.68973591  0.93043615  0.33575238     0.02090
H349        H  0.66707636  0.86266059  0.38445292     0.15070
H350        H  0.66319985  0.94639705  0.29042425     0.15070
C351        C  0.71381087  0.95799531  0.33385987     0.36720
C352        C  0.61955948  0.84852210  0.33959576     0.36630
N353        N  0.73319677  0.98002014  0.33228978    -0.43620
N354        N  0.60172214  0.82519534  0.34051669    -0.43620
C355        C  0.64129749  0.91298638  0.68957940    -0.00030
C356        C  0.65928460  0.88286323  0.68359517    -0.11900
C357        C  0.68431292  0.88148112  0.65831032     0.02210
C358        C  0.69138331  0.91059957  0.63876107    -0.00120
C359        C  0.67504150  0.94121121  0.64643467    -0.11840
C360        C  0.65033218  0.94266239  0.67182884     0.02090
H361        H  0.65233671  0.85996860  0.69718264     0.15070
H362        H  0.68073003  0.96373973  0.63168591     0.15070
C363        C  0.63408869  0.97471395  0.67889772     0.36720
C364        C  0.70049638  0.84944007  0.65110989     0.36630
N365        N  0.62124978  0.00043513  0.68481367    -0.43620
N366        N  0.71343365  0.82374431  0.64528811    -0.43620
C367        C  0.36517409  0.91096470  0.68789948    -0.00030
C368        C  0.35932735  0.94015790  0.66843790    -0.11900
C369        C  0.33324473  0.94100415  0.64430426     0.02210
C370        C  0.31294218  0.91204156  0.63894930    -0.00120
C371        C  0.31716938  0.88364267  0.65998542    -0.11840
C372        C  0.34309743  0.88293043  0.68452187     0.02090
H373        H  0.37587905  0.96198379  0.67139352     0.15070
H374        H  0.30166639  0.86126588  0.65577780     0.15070
C375        C  0.34836034  0.85221754  0.70377589     0.36720
C376        C  0.32811198  0.97162478  0.62483650     0.36630
N377        N  0.35260798  0.82754608  0.71912727    -0.43620
N378        N  0.32378060  0.99625224  0.60944009    -0.43620
C379        C  0.00064621  0.23041414  0.36516269    -0.00030
C380        C  0.98127890  0.25975799  0.37049376    -0.11900
C381        C  0.97962208  0.28533873  0.34614663     0.02210
C382        C  0.99807571  0.28222002  0.31560565    -0.00120
C383        C  0.01502807  0.25159302  0.30878289    -0.11840
C384        C  0.01633286  0.22559616  0.33327637     0.02090
H385        H  0.96785747  0.26312563  0.39427665     0.15070
H386        H  0.02874132  0.24868715  0.28512079     0.15070
C387        C  0.03552992  0.19534939  0.32581003     0.36720
C388        C  0.95864605  0.31452042  0.35333436     0.36630
N389        N  0.05078639  0.17103968  0.31964519    -0.43620
N390        N  0.94186352  0.33788441  0.35917938    -0.43620
C391        C  0.00909217  0.55230574  0.31442516    -0.00030
C392        C  0.02802535  0.54835690  0.34445573    -0.11900
C393        C  0.02677774  0.57239982  0.37035227     0.02210
C394        C  0.00647395  0.60159345  0.36653383    -0.00120
C395        C  0.98993924  0.60733923  0.33541409    -0.11840
C396        C  0.99098523  0.58292295  0.30934767     0.02090
H397        H  0.04332612  0.52580108  0.34823320     0.15070
H398        H  0.97468069  0.63001473  0.33217543     0.15070
C399        C  0.97162494  0.58919831  0.27883353     0.36720
C400        C  0.04655120  0.56627777  0.40071111     0.36630
N401        N  0.95611350  0.59457847  0.25441001    -0.43620
N402        N  0.06234930  0.56127316  0.42502654    -0.43620
C403        C  0.00674249  0.54797489  0.68303687    -0.00030
C404        C  0.99375036  0.58012871  0.69141127    -0.11900
C405        C  0.99347354  0.60654232  0.66734560     0.02210
C406        C  0.00607148  0.60059625  0.63431119    -0.00120
C407        C  0.02173846  0.56948105  0.62724147    -0.11840
C408        C  0.02252708  0.54348157  0.65118313     0.02090
H409        H  0.98225963  0.58410423  0.71608291     0.15070
H410        H  0.03288586  0.56513834  0.60245603     0.15070
C411        C  0.03998145  0.51252714  0.64224829     0.36720
C412        C  0.97840762  0.63859961  0.67654204     0.36630
N413        N  0.05397466  0.48776485  0.63499737    -0.43620
N414        N  0.96650788  0.66435757  0.68406391    -0.43620
C415        C  0.00696099  0.27889991  0.68775742    -0.00030
C416        C  0.98456456  0.25123373  0.68920021    -0.11900
C417        C  0.98536657  0.22585187  0.66414351     0.02210
C418        C  0.00903630  0.22818136  0.63730466    -0.00120
C419        C  0.03310999  0.25444975  0.63770814    -0.11840
C420        C  0.03233127  0.27959880  0.66261826     0.02090
H421        H  0.96508947  0.25058948  0.70861463     0.15070
H422        H  0.05202696  0.25594624  0.61778799     0.15070
C423        C  0.05761167  0.30615925  0.66159566     0.36720
C424        C  0.95994125  0.19948254  0.66509867     0.36630
N425        N  0.07795834  0.32734579  0.66085087    -0.43620
N426        N  0.93948199  0.17840636  0.66599304    -0.43620
C427        C  0.31138182  0.27736017  0.99926085    -0.00030
C428        C  0.32218770  0.26384674  0.03038870    -0.11900
C429        C  0.34694310  0.23833755  0.03145268     0.02210
C430        C  0.36125115  0.22626301  0.00100079    -0.00120
C431        C  0.34891363  0.23829297  0.96982174    -0.11840
C432        C  0.32399300  0.26364203  0.96875279     0.02090
H433        H  0.31248499  0.27437418  0.05388642     0.15070
H434        H  0.35994350  0.22906582  0.94636545     0.15070
C435        C  0.31279216  0.27628374  0.93619201     0.36720
C436        C  0.35849746  0.22605351  0.06402681     0.36630
N437        N  0.30368642  0.28635504  0.91011172    -0.43620
N438        N  0.36771279  0.21609933  0.09011357    -0.43620
C439        C  0.68677702  0.28011578  0.99486723    -0.00030
C440        C  0.68989292  0.25257793  0.01728826    -0.11900
C441        C  0.66481826  0.22716599  0.01835653     0.02210
C442        C  0.63617381  0.22944278  0.99676436    -0.00120
C443        C  0.63480061  0.25539805  0.97247303    -0.11840
C444        C  0.65986863  0.28038986  0.97113211     0.02090
H445        H  0.71071562  0.25204005  0.03537531     0.15070
H446        H  0.61345723  0.25670723  0.95502592     0.15070
C447        C  0.65726937  0.30621376  0.94523394     0.36720
C448        C  0.66774935  0.20069288  0.04349893     0.36630
N449        N  0.65527850  0.32681249  0.92439293    -0.43620
N450        N  0.67017306  0.17945984  0.06364921    -0.43620
C451        C  0.63473608  0.60132445  0.99475962    -0.00030
C452        C  0.66417703  0.60666940  0.01433813    -0.11900
C453        C  0.69019612  0.58219704  0.01525509     0.02210
C454        C  0.68660875  0.55185784  0.99645477    -0.00120
C455        C  0.65859695  0.54817598  0.97468563    -0.11840
C456        C  0.63298424  0.57257306  0.97346026     0.02090
H457        H  0.66596796  0.62896033  0.03038939     0.15070
H458        H  0.65621234  0.52555248  0.95915983     0.15070
C459        C  0.60512503  0.56736516  0.95006748     0.36720
C460        C  0.71895512  0.58775902  0.03737585     0.36630
N461        N  0.58289630  0.56316967  0.93122907    -0.43620
N462        N  0.74205943  0.59233520  0.05503922    -0.43620
C463        C  0.36169141  0.60475538  0.00574810    -0.00030
C464        C  0.33945878  0.60341780  0.97780972    -0.11900
C465        C  0.31452963  0.57794650  0.97559478     0.02210
C466        C  0.31194810  0.55345122  0.00159846    -0.00120
C467        C  0.33233095  0.55660247  0.03064294    -0.11840
C468        C  0.35675442  0.58219912  0.03309197     0.02090
H469        H  0.34298002  0.62082896  0.95679253     0.15070
H470        H  0.32983582  0.53832148  0.05107691     0.15070
C471        C  0.37667961  0.58468006  0.06384938     0.36720
C472        C  0.29383474  0.57581578  0.94534884     0.36630
N473        N  0.39250174  0.58686863  0.08856698    -0.43620
N474        N  0.27724234  0.57408059  0.92109959    -0.43620
loop_ 
_geom_bond_atom_site_label_1 
_geom_bond_atom_site_label_2 
_geom_bond_distance 
_geom_bond_site_symmetry_2 
_ccdc_geom_bond_type 
N1            N2   1.321       .  A
N1            C5   1.340       .  A
N1           Cu9   2.063       .  S
N2            C3   1.351   1_554  A
N2           Cu8   2.081       .  S
C3            C4   1.388       .  A
C3            H6   1.082       .  S
C4            C5   1.382   1_556  A
C4          C451   1.482       .  S
C5            H7   1.082       .  S
Cu8          N11   2.082   1_554  S
Cu9          N19   2.063       .  S
Cu10         N12   2.081       .  S
Cu10         N18   2.078       .  S
N11          N12   1.326       .  A
N11          C15   1.345   1_556  A
N12          C13   1.346       .  A
C13          C14   1.382       .  A
C13          H16   1.083       .  S
C14          C15   1.381   1_556  A
C14         C313   1.467       .  S
C15          H17   1.081       .  S
N18          N19   1.321   1_556  A
N18          C22   1.350       .  A
N19          C20   1.340       .  A
C20          C21   1.381       .  A
C20          H23   1.082       .  S
C21          C22   1.386   1_554  A
C21         C463   1.479       .  S
C22          H24   1.082       .  S
N25          N26   1.320       .  A
N25          C29   1.339       .  A
N25         Cu33   2.061       .  S
N26          C27   1.350       .  A
N26         Cu32   2.078       .  S
C27          C28   1.387   1_554  A
C27          H30   1.082   1_554  S
C28          C29   1.381   1_556  A
C28         C439   1.479       .  S
C29          H31   1.082       .  S
Cu32         N35   2.081       .  S
Cu33         N43   2.061       .  S
Cu34         N36   2.080       .  S
Cu34         N42   2.078       .  S
N35          N36   1.326       .  A
N35          C39   1.345       .  A
N36          C37   1.345       .  A
C37          C38   1.381   1_554  A
C37          H40   1.082   1_554  S
C38          C39   1.381   1_556  A
C38         C327   1.467       .  S
C39          H41   1.082       .  S
N42          N43   1.320       .  A
N42          C46   1.351       .  A
N43          C44   1.339       .  A
C44          C45   1.382       .  A
C44          H47   1.082       .  S
C45          C46   1.389       .  A
C45         C454   1.482   1_554  S
C46          H48   1.082   1_554  S
N49          N50   1.321       .  A
N49          C53   1.340       .  A
N49         Cu57   2.066       .  S
N50          C51   1.349       .  A
N50         Cu56   2.076       .  S
C51          C52   1.387       .  A
C51          H54   1.082       .  S
C52          C53   1.382       .  A
C52         C442   1.480   1_554  S
C53          H55   1.082   1_554  S
Cu56         N59   2.077       .  S
Cu57         N67   2.066       .  S
Cu58         N60   2.079       .  S
Cu58         N66   2.077       .  S
N59          N60   1.325       .  A
N59          C63   1.345       .  A
N60          C61   1.345   1_554  A
C61          C62   1.382       .  A
C61          H64   1.082       .  S
C62          C63   1.381   1_556  A
C62         C314   1.467   1_545  S
C63          H65   1.082       .  S
N66          N67   1.322       .  A
N66          C70   1.349       .  A
N67          C68   1.342       .  A
C68          C69   1.379       .  A
C68          H71   1.082       .  S
C69          C70   1.384       .  A
C69         C430   1.472       .  S
C70          H72   1.082   1_554  S
N73          N74   1.322       .  A
N73          C77   1.343       .  A
N73         Cu81   2.072       .  S
N74          C75   1.348       .  A
N74         Cu80   2.074       .  S
C75          C76   1.382       .  A
C75          H78   1.082   1_556  S
C76          C77   1.380       .  A
C76         C427   1.472       .  S
C77          H79   1.082       .  S
Cu80         N83   2.075       .  S
Cu81         N91   2.072       .  S
Cu82         N84   2.076       .  S
Cu82         N90   2.075       .  S
N83          N84   1.324       .  A
N83          C87   1.345   1_556  A
N84          C85   1.345       .  A
C85          C86   1.382       .  A
C85          H88   1.082       .  S
C86          C87   1.381   1_556  A
C86         C328   1.466   1_556  S
C87          H89   1.082       .  S
N90          N91   1.322       .  A
N90          C94   1.349       .  A
N91          C92   1.342       .  A
C92          C93   1.381       .  A
C92          H95   1.082   1_556  S
C93          C94   1.384       .  A
C93         C466   1.476   1_556  S
C94          H96   1.082       .  S
N97          N98   1.320       .  A
N97         C101   1.340       .  A
N97        Cu105   2.061       .  S
N98          C99   1.349   1_655  A
N98        Cu104   2.071       .  S
C99         C100   1.385       .  A
C99         H102   1.082       .  S
C100        C101   1.380   1_455  A
C100        C415   1.475       .  S
C101        H103   1.082       .  S
Cu104       N107   2.074   1_655  S
Cu105       N115   2.061       .  S
Cu106       N108   2.081       .  S
Cu106       N114   2.079   1_455  S
N107        N108   1.326       .  A
N107        C111   1.344       .  A
N108        C109   1.345       .  A
C109        C110   1.382       .  A
C109        H112   1.082       .  S
C110        C111   1.380       .  A
C110        C329   1.465       .  S
C111        H113   1.082   1_455  S
N114        N115   1.320       .  A
N114        C118   1.351   1_655  A
N115        C116   1.338       .  A
C116        C117   1.382   1_655  A
C116        H119   1.082       .  S
C117        C118   1.389       .  A
C117        C403   1.484       .  S
C118        H120   1.082       .  S
N121        N122   1.320   1_655  A
N121        C125   1.338       .  A
N121       Cu129   2.061       .  S
N122        C123   1.351       .  A
N122       Cu128   2.076       .  S
C123        C124   1.389       .  A
C123        H126   1.082       .  S
C124        C125   1.382   1_455  A
C124        C406   1.483       .  S
C125        H127   1.082       .  S
Cu128       N131   2.078       .  S
Cu129       N139   2.061       .  S
Cu130       N132   2.075       .  S
Cu130       N138   2.073   1_455  S
N131        N132   1.326       .  A
N131        C135   1.344       .  A
N132        C133   1.344       .  A
C133        C134   1.380       .  A
C133        H136   1.082       .  S
C134        C135   1.381       .  A
C134        C299   1.464       .  S
C135        H137   1.082       .  S
N138        N139   1.320       .  A
N138        C142   1.349   1_655  A
N139        C140   1.339       .  A
C140        C141   1.382   1_655  A
C140        H143   1.082       .  S
C141        C142   1.386       .  A
C141        C394   1.479       .  S
C142        H144   1.082       .  S
N145        N146   1.319       .  A
N145        C149   1.337       .  A
N145       Cu153   2.054       .  S
N146        C147   1.351       .  A
N146       Cu152   2.079   1_455  S
C147        C148   1.389       .  A
C147        H150   1.082   1_455  S
C148        C149   1.382       .  A
C148        C382   1.483   1_455  S
C149        H151   1.082       .  S
Cu152       N155   2.083       .  S
Cu153       N163   2.054       .  S
Cu154       N156   2.081   1_455  S
Cu154       N162   2.078       .  S
N155        N156   1.327       .  A
N155        C159   1.345       .  A
N156        C157   1.344       .  A
C157        C158   1.380       .  A
C157        H160   1.082   1_655  S
C158        C159   1.381       .  A
C158        C330   1.466       .  S
C159        H161   1.082       .  S
N162        N163   1.318       .  A
N162        C166   1.351       .  A
N163        C164   1.337       .  A
C164        C165   1.384       .  A
C164        H167   1.082       .  S
C165        C166   1.392       .  A
C165        C391   1.488       .  S
C166        H168   1.081       .  S
N169        N170   1.320       .  A
N169        C173   1.339       .  A
N169       Cu177   2.061       .  S
N170        C171   1.349       .  A
N170       Cu176   2.074       .  S
C171        C172   1.388       .  A
C171        H174   1.082   1_455  S
C172        C173   1.382       .  A
C172        C418   1.481       .  S
C173        H175   1.082       .  S
Cu176       N179   2.077       .  S
Cu177       N187   2.061       .  S
Cu178       N180   2.080       .  S
Cu178       N186   2.078       .  S
N179        N180   1.326       .  A
N179        C183   1.344       .  A
N180        C181   1.345       .  A
C181        C182   1.381       .  A
C181        H184   1.082       .  S
C182        C183   1.380       .  A
C182        C300   1.466   1_545  S
C183        H185   1.082   1_455  S
N186        N187   1.320       .  A
N186        C190   1.351       .  A
N187        C188   1.338       .  A
C188        C189   1.383       .  A
C188        H191   1.082       .  S
C189        C190   1.389       .  A
C189        C379   1.484       .  S
C190        H192   1.082       .  S
N193        N194   1.322       .  A
N193        C197   1.342       .  A
N193       Cu201   2.071       .  S
N194        C195   1.348       .  A
N194       Cu200   2.072       .  S
C195        C196   1.383       .  A
C195        H198   1.082       .  S
C196        C197   1.381       .  A
C196        C367   1.475       .  S
C197        H199   1.082       .  S
Cu200       N203   2.073       .  S
Cu201       N211   2.071       .  S
Cu202       N204   2.078       .  S
Cu202       N210   2.076       .  S
N203        N204   1.324       .  A
N203        C207   1.345       .  A
N204        C205   1.345       .  A
C205        C206   1.382       .  A
C205        H208   1.082       .  S
C206        C207   1.381       .  A
C206        C316   1.467       .  S
C207        H209   1.082       .  S
N210        N211   1.322       .  A
N210        C214   1.349       .  A
N211        C212   1.342       .  A
C212        C213   1.380       .  A
C212        H215   1.082       .  S
C213        C214   1.383       .  A
C213        C355   1.474       .  S
C214        H216   1.082       .  S
N217        N218   1.321       .  A
N217        C221   1.341       .  A
N217       Cu225   2.069       .  S
N218        C219   1.350       .  A
N218       Cu224   2.076       .  S
C219        C220   1.386       .  A
C219        H222   1.082       .  S
C220        C221   1.382       .  A
C220        C343   1.479       .  S
C221        H223   1.082       .  S
Cu224       N227   2.078       .  S
Cu225       N235   2.068       .  S
Cu226       N228   2.078       .  S
Cu226       N234   2.076       .  S
N227        N228   1.325       .  A
N227        C231   1.345       .  A
N228        C229   1.345       .  A
C229        C230   1.382       .  A
C229        H232   1.082       .  S
C230        C231   1.381       .  A
C230        C301   1.467       .  S
C231        H233   1.082       .  S
N234        N235   1.322       .  A
N234        C238   1.349       .  A
N235        C236   1.342       .  A
C236        C237   1.380       .  A
C236        H239   1.082       .  S
C237        C238   1.384       .  A
C237        C358   1.474       .  S
C238        H240   1.082       .  S
N241        N242   1.320       .  A
N241        C245   1.338       .  A
N241       Cu249   2.056       .  S
N242        C243   1.351       .  A
N242       Cu248   2.079       .  S
C243        C244   1.389       .  A
C243        H246   1.082       .  S
C244        C245   1.382       .  A
C244        C331   1.483       .  S
C245        H247   1.082       .  S
Cu248       N251   2.081       .  S
Cu249       N259   2.057       .  S
Cu250       N252   2.086       .  S
Cu250       N258   2.082       .  S
N251        N252   1.326       .  A
N251        C255   1.346       .  A
N252        C253   1.345       .  A
C253        C254   1.382       .  A
C253        H256   1.082       .  S
C254        C255   1.381       .  A
C254        C315   1.468       .  S
C255        H257   1.082       .  S
N258        N259   1.320       .  A
N258        C262   1.351       .  A
N259        C260   1.338       .  A
C260        C261   1.382       .  A
C260        H263   1.082       .  S
C261        C262   1.390       .  A
C261        C346   1.484       .  S
C262        H264   1.082       .  S
N265        N266   1.320       .  A
N265        C269   1.338       .  A
N265       Cu273   2.061       .  S
N266        C267   1.351       .  A
N266       Cu272   2.078       .  S
C267        C268   1.390       .  A
C267        H270   1.081       .  S
C268        C269   1.384       .  A
C268        C334   1.487       .  S
C269        H271   1.082       .  S
Cu272       N275   2.080       .  S
Cu273       N283   2.061       .  S
Cu274       N276   2.075       .  S
Cu274       N282   2.072       .  S
N275        N276   1.326       .  A
N275        C279   1.345       .  A
N276        C277   1.344       .  A
C277        C278   1.380       .  A
C277        H280   1.082       .  S
C278        C279   1.381       .  A
C278        C302   1.465       .  S
C279        H281   1.082       .  S
N282        N283   1.320       .  A
N282        C286   1.349       .  A
N283        C284   1.340       .  A
C284        C285   1.379       .  A
C284        H287   1.082       .  S
C285        C286   1.384       .  A
C285        C370   1.472       .  S
C286        H288   1.082       .  S
O289       Cu297   2.003       .  S
O289        C299   1.277       .  A
O290       Cu297   2.007       .  S
O290        C300   1.277       .  A
O291       Cu297   2.007   1_655  S
O291        C301   1.277       .  A
O292       Cu297   2.005       .  S
O292        C302   1.277       .  A
O293       Cu298   2.005       .  S
O293        C302   1.277       .  A
O294       Cu298   2.007   1_655  S
O294        C301   1.277       .  A
O295       Cu298   2.004       .  S
O295        C300   1.277       .  A
O296       Cu298   2.005       .  S
O296        C299   1.277       .  A
Cu297      Cu298   2.377       .  S
O303       Cu311   2.009   1_554  S
O303        C313   1.278   1_554  A
O304       Cu311   2.010       .  S
O304        C314   1.278       .  A
O305       Cu311   2.003   1_554  S
O305        C315   1.277       .  A
O306       Cu311   2.004       .  S
O306        C316   1.277       .  A
O307       Cu312   2.011       .  S
O307        C316   1.278       .  A
O308       Cu312   2.014   1_554  S
O308        C315   1.278       .  A
O309       Cu312   2.005       .  S
O309        C314   1.277       .  A
O310       Cu312   2.005       .  S
O310        C313   1.277       .  A
Cu311      Cu312   2.377       .  S
O317       Cu325   2.007   1_655  S
O317        C327   1.277       .  A
O318       Cu325   2.006   1_554  S
O318        C328   1.277       .  A
O319       Cu325   2.004       .  S
O319        C329   1.277       .  A
O320       Cu325   2.006   1_554  S
O320        C330   1.277   1_455  A
O321       Cu326   2.006   1_654  S
O321        C330   1.277       .  A
O322       Cu326   2.006       .  S
O322        C329   1.277       .  A
O323       Cu326   2.007   1_554  S
O323        C328   1.277       .  A
O324       Cu326   2.006   1_655  S
O324        C327   1.277       .  A
Cu325      Cu326   2.377       .  S
C331        C332   1.406       .  A
C331        C336   1.412       .  A
C332        C333   1.408       .  A
C332        H337   1.085       .  S
C333        C334   1.415       .  A
C333        C340   1.443       .  S
C334        C335   1.403       .  A
C335        C336   1.393       .  A
C335        H338   1.085       .  S
C336        C339   1.445       .  S
C339        N341   1.157       .  T
C340        N342   1.157       .  T
C343        C344   1.400       .  A
C343        C348   1.412       .  A
C344        C345   1.395       .  A
C344        H349   1.085       .  S
C345        C346   1.413       .  A
C345        C352   1.445       .  S
C346        C347   1.407       .  A
C347        C348   1.408       .  A
C347        H350   1.084       .  S
C348        C351   1.443       .  S
C351        N353   1.157       .  T
C352        N354   1.157       .  T
C355        C356   1.403       .  A
C355        C360   1.409       .  A
C356        C357   1.404       .  A
C356        H361   1.085       .  S
C357        C358   1.410       .  A
C357        C364   1.444       .  S
C358        C359   1.401       .  A
C359        C360   1.398       .  A
C359        H362   1.085       .  S
C360        C363   1.444       .  S
C363        N365   1.157   1_565  T
C364        N366   1.157       .  T
C367        C368   1.402       .  A
C367        C372   1.412       .  A
C368        C369   1.397       .  A
C368        H373   1.085       .  S
C369        C370   1.409       .  A
C369        C376   1.444       .  S
C370        C371   1.403       .  A
C371        C372   1.404       .  A
C371        H374   1.085       .  S
C372        C375   1.444       .  S
C375        N377   1.157       .  T
C376        N378   1.157       .  T
C379        C380   1.402   1_455  A
C379        C384   1.414       .  A
C380        C381   1.393       .  A
C380        H385   1.085       .  S
C381        C382   1.412       .  A
C381        C388   1.445       .  S
C382        C383   1.406   1_655  A
C383        C384   1.408       .  A
C383        H386   1.084       .  S
C384        C387   1.443       .  S
C387        N389   1.157       .  T
C388        N390   1.157       .  T
C391        C392   1.405       .  A
C391        C396   1.416   1_455  A
C392        C393   1.393       .  A
C392        H397   1.084       .  S
C393        C394   1.409       .  A
C393        C400   1.445       .  S
C394        C395   1.404   1_455  A
C395        C396   1.408       .  A
C395        H398   1.085       .  S
C396        C399   1.443       .  S
C399        N401   1.157       .  T
C400        N402   1.157       .  T
C403        C404   1.407   1_455  A
C403        C408   1.413       .  A
C404        C405   1.408       .  A
C404        H409   1.084       .  S
C405        C406   1.413   1_655  A
C405        C412   1.443       .  S
C406        C407   1.402       .  A
C407        C408   1.393       .  A
C407        H410   1.085       .  S
C408        C411   1.445       .  S
C411        N413   1.157       .  T
C412        N414   1.157       .  T
C415        C416   1.403   1_455  A
C415        C420   1.409       .  A
C416        C417   1.406       .  A
C416        H421   1.085       .  S
C417        C418   1.414   1_655  A
C417        C424   1.443       .  S
C418        C419   1.403       .  A
C419        C420   1.395       .  A
C419        H422   1.085       .  S
C420        C423   1.445       .  S
C423        N425   1.157       .  T
C424        N426   1.157       .  T
C427        C428   1.402   1_556  A
C427        C432   1.409       .  A
C428        C429   1.401       .  A
C428        H433   1.085       .  S
C429        C430   1.409       .  A
C429        C436   1.444       .  S
C430        C431   1.402   1_554  A
C431        C432   1.401       .  A
C431        H434   1.085       .  S
C432        C435   1.444       .  S
C435        N437   1.157       .  T
C436        N438   1.157       .  T
C439        C440   1.405   1_556  A
C439        C444   1.411       .  A
C440        C441   1.407       .  A
C440        H445   1.085       .  S
C441        C442   1.413   1_554  A
C441        C448   1.443       .  S
C442        C443   1.402       .  A
C443        C444   1.395       .  A
C443        H446   1.085       .  S
C444        C447   1.445       .  S
C447        N449   1.157       .  T
C448        N450   1.157       .  T
C451        C452   1.406   1_556  A
C451        C456   1.411       .  A
C452        C453   1.408       .  A
C452        H457   1.084       .  S
C453        C454   1.413   1_554  A
C453        C460   1.443       .  S
C454        C455   1.402       .  A
C455        C456   1.395       .  A
C455        H458   1.085       .  S
C456        C459   1.445       .  S
C459        N461   1.157       .  T
C460        N462   1.157       .  T
C463        C464   1.405   1_554  A
C463        C468   1.411       .  A
C464        C465   1.406       .  A
C464        H469   1.085       .  S
C465        C466   1.412   1_556  A
C465        C472   1.443       .  S
C466        C467   1.401       .  A
C467        C468   1.396       .  A
C467        H470   1.085       .  S
C468        C471   1.444       .  S
C471        N473   1.157       .  T
C472        N474   1.157       .  T
