geometry optimzed in LAMMPS
_audit_creation_date              2020-11-30 
_audit_creation_method            'lammps2cif' 
_symmetry_space_group_name_H-M    'P1' 
_symmetry_Int_Tables_number       1 
_symmetry_cell_setting            triclinic 
loop_ 
_symmetry_equiv_pos_as_xyz 
  x,y,z 
_cell_length_a                    26.1125847 
_cell_length_b                    26.092058992858366 
_cell_length_c                    27.983148388492918 
_cell_angle_alpha                 90.60831447466668 
_cell_angle_beta                  89.98420440107928 
_cell_angle_gamma                 120.15529662404639 
loop_ 
_atom_site_label 
_atom_site_type_symbol 
_atom_site_fract_x 
_atom_site_fract_y 
_atom_site_fract_z 
_atom_site_charge 
C1          C  0.00598041  0.33005627  0.29595147     0.88300
C2          C  0.05862037  0.32073299  0.28859794    -0.51900
C3          C  0.05453513  0.28882091  0.24847419     0.11200
C4          C  0.99698015  0.26882803  0.21895450     0.22200
C5          C  0.00145552  0.35883399  0.25019806    -0.52700
C6          C  0.99681264  0.32747372  0.20966293     0.11300
C7          C  0.95137784  0.26774873  0.29560376    -0.52200
C8          C  0.94615870  0.23508973  0.25555119     0.11900
H9          H  0.09623085  0.33820075  0.31296697     0.16400
H10         H  0.99337153  0.24297708  0.18607027     0.02100
H11         H  0.00263026  0.40107756  0.24981976     0.16700
H12         H  0.91934704  0.25103154  0.32443162     0.16500
C13         C  0.29927716  0.32127709  0.29275538     0.88300
C14         C  0.29049276  0.25914911  0.28564533    -0.51900
C15         C  0.26093266  0.23143200  0.24453786     0.11200
C16         C  0.24261170  0.26876568  0.21401326     0.22200
C17         C  0.33034774  0.35480601  0.24762260    -0.52700
C18         C  0.30090864  0.32774943  0.20651407     0.11300
C19         C  0.23676138  0.31295882  0.28974914    -0.52200
C20         C  0.20695727  0.28554541  0.24843591     0.11900
H21         H  0.30687756  0.23903226  0.31067937     0.16400
H22         H  0.21887192  0.24665239  0.18034393     0.02100
H23         H  0.37208862  0.39656530  0.24809094     0.16700
H24         H  0.21823175  0.32842594  0.31730050     0.16500
C25         C  0.30240664  0.02756292  0.28508541     0.88300
C26         C  0.23998062  0.97303835  0.28390597    -0.51900
C27         C  0.20766795  0.96975308  0.24433632     0.11200
C28         C  0.24108252  0.02194636  0.20955969     0.22200
C29         C  0.33077625  0.02470852  0.23823765    -0.52700
C30         C  0.29906571  0.02181820  0.19869139     0.11300
C31         C  0.29321830  0.08070232  0.28037510    -0.52200
C32         C  0.26126435  0.07815578  0.24094157     0.11900
H33         H  0.22314979  0.93952546  0.31148654     0.16400
H34         H  0.21528600  0.01972320  0.17725892     0.02100
H35         H  0.37278798  0.02555127  0.23641424     0.16700
H36         H  0.31109951  0.11759244  0.30570213     0.16500
C37         C  0.00248831  0.72619272  0.29863658     0.88300
C38         C  0.94848846  0.73485933  0.29635041    -0.51900
C39         C  0.94515129  0.76116573  0.25525785     0.11200
C40         C  0.99674651  0.77667543  0.22034271     0.22200
C41         C  0.99838752  0.69121948  0.25331611    -0.52700
C42         C  0.99518855  0.71719503  0.21239385     0.11300
C43         C  0.05615896  0.78787719  0.29134564    -0.52200
C44         C  0.05356287  0.81463425  0.25051981     0.11900
H45         H  0.91526075  0.72035223  0.32421868     0.16400
H46         H  0.99447119  0.79795413  0.18685758     0.02100
H47         H  0.99805020  0.64938876  0.25352310     0.16700
H48         H  0.09343670  0.80845131  0.31611364     0.16500
C49         C  0.69910283  0.71985470  0.30082704     0.88300
C50         C  0.70657618  0.78194788  0.29977442    -0.51900
C51         C  0.73431996  0.81337386  0.25988226     0.11200
C52         C  0.75202223  0.77852586  0.22417906     0.22200
C53         C  0.66615573  0.68931939  0.25475754    -0.52700
C54         C  0.69320473  0.71926479  0.21436096     0.11300
C55         C  0.76127730  0.72929633  0.29478368    -0.52200
C56         C  0.78955266  0.75977366  0.25485906     0.11900
H57         H  0.69070707  0.79933716  0.32795026     0.16400
H58         H  0.77454304  0.80324610  0.19142053     0.02100
H59         H  0.62505736  0.64695815  0.25408863     0.16700
H60         H  0.78112568  0.71256162  0.31978685     0.16500
C61         C  0.69309821  0.02329261  0.20105525     0.88300
C62         C  0.70012139  0.96866808  0.20417557    -0.51900
C63         C  0.73232053  0.96907589  0.24271240     0.11200
C64         C  0.75443066  0.02544925  0.27529526     0.22200
C65         C  0.66577933  0.02630084  0.24855177    -0.52700
C66         C  0.69721864  0.02766099  0.28781312     0.11300
C67         C  0.75609006  0.07639774  0.20197935    -0.52200
C68         C  0.78882881  0.07825524  0.24054643     0.11900
H69         H  0.68113026  0.93260237  0.17808226     0.16400
H70         H  0.78054803  0.02646363  0.30697093     0.02100
H71         H  0.62491110  0.02762182  0.25092225     0.16700
H72         H  0.77311546  0.11034750  0.17471034     0.16500
O73         O  0.44709784  0.03152140  0.40120191    -0.78300
O74         O  0.59889314  0.13421032  0.04706002    -0.78400
O75         O  0.48263788  0.11158425  0.96875744    -0.78400
O76         O  0.62784494  0.02587199  0.45308610    -0.78300
O77         O  0.49640312  0.13407945  0.04491730    -0.78400
O78         O  0.56159812  0.02780947  0.40415703    -0.78400
O79         O  0.59688354  0.10989590  0.97140724    -0.78300
O80         O  0.37150169  0.02553908  0.44327855    -0.78400
C81         C  0.39637542  0.02971404  0.40341977     1.11400
C82         C  0.61763648  0.14771087  0.00474265     1.11200
C83         C  0.49601690  0.14895586  0.00213600     1.11400
C84         C  0.61119019  0.02811201  0.41096332     1.11300
O85         O  0.49055476  0.91329647  0.44918688    -0.78300
O86         O  0.43784840  0.02380901  0.09617530    -0.78400
O87         O  0.37289095  0.94680425  0.00648571    -0.78300
O88         O  0.61736318  0.04922501  0.04904724    -0.78300
O89         O  0.54472140  0.02479026  0.09975930    -0.78400
O90         O  0.39271577  0.91497086  0.44216174    -0.78300
O91         O  0.54159991  0.94825299  0.01380880    -0.78300
O92         O  0.39316320  0.04677057  0.04107873    -0.78400
Co93       Co  0.47642145  0.97939839  0.43399970     1.51500
Co94       Co  0.51733091  0.07440026  0.06817534     1.51700
Co95       Co  0.42887505  0.02716243  0.98514867     1.51600
Co96       Co  0.56689154  0.02709438  0.98983143     1.51500
O97         O  0.49240226  0.01824604  0.00880548    -1.40300
C98         C  0.51115649  0.90545520  0.48695831     1.11300
C99         C  0.39535507  0.03088181  0.08335008     1.11400
C100        C  0.36066188  0.90544155  0.47796961     1.11300
C101        C  0.59564178  0.03299888  0.09038894     1.11300
O102        O  0.00244751  0.39888173  0.45572744    -0.78300
O103        O  0.07967292  0.62412205  0.98169172    -0.78400
O104        O  0.00498578  0.58596035  0.41238424    -0.78400
O105        O  0.10382979  0.52827727  0.05771260    -0.78300
O106        O  0.99446742  0.65048993  0.45806242    -0.78400
O107        O  0.08371325  0.51207832  0.98133426    -0.78400
O108        O  0.10092339  0.62975715  0.05792810    -0.78300
O109        O  0.00890653  0.47295193  0.41206222    -0.78400
C110        C  0.00791144  0.42284979  0.41544104     1.11400
C111        C  0.11578648  0.64792503  0.01562885     1.11200
C112        C  0.00181906  0.63389187  0.41717610     1.11400
C113        C  0.11984209  0.52663746  0.01539260     1.11300
O114        O  0.01910726  0.42299290  0.05347174    -0.78300
O115        O  0.91389404  0.56418463  0.01699325    -0.78400
O116        O  0.89053454  0.41869829  0.44957324    -0.78300
O117        O  0.98886410  0.57316883  0.10742135    -0.78300
O118        O  0.01264749  0.64357223  0.05495496    -0.78400
O119        O  0.91908699  0.39867506  0.01531157    -0.78300
O120        O  0.99241201  0.46697882  0.10713697    -0.78300
O121        O  0.88708991  0.51587188  0.45045864    -0.78400
Co122      Co  0.99974057  0.45610610  0.99605076     1.51500
Co123      Co  0.99517340  0.59165737  0.99688428     1.51700
Co124      Co  0.95455483  0.50183441  0.44135218     1.51600
Co125      Co  0.04170008  0.54708736  0.07857221     1.51500
O126        O  0.98773528  0.51883459  0.01787138    -1.40300
C127        C  0.00185166  0.42528977  0.09542432     1.11300
C128        C  0.87448749  0.53499482  0.48707388     1.11400
C129        C  0.87926268  0.38702334  0.48559263     1.11300
C130        C  0.99648085  0.62357365  0.09667708     1.11300
O131        O  0.36808585  0.39605945  0.45330894    -0.78300
O132        O  0.59583296  0.53546281  0.98064225    -0.78400
O133        O  0.55982172  0.57642028  0.41380495    -0.78400
O134        O  0.49511964  0.41560080  0.05316159    -0.78300
O135        O  0.62732732  0.64932267  0.45993649    -0.78400
O136        O  0.48002421  0.42266266  0.97715491    -0.78400
O137        O  0.59913076  0.51711446  0.05634580    -0.78300
O138        O  0.44271454  0.46312049  0.40963751    -0.78400
C139        C  0.39184814  0.41442532  0.41290206     1.11400
C140        C  0.61694605  0.51980914  0.01399082     1.11200
C141        C  0.60871273  0.62670888  0.41879755     1.11400
C142        C  0.49408644  0.39957867  0.01010727     1.11300
O143        O  0.39275697  0.40107468  0.05035981    -0.78300
O144        O  0.54378928  0.64615517  0.02115340    -0.78400
O145        O  0.39464463  0.53164522  0.45105557    -0.78300
O146        O  0.54910355  0.57686745  0.10885688    -0.78300
O147        O  0.62016106  0.62211206  0.05646084    -0.78400
O148        O  0.37227109  0.48023052  0.01507095    -0.78300
O149        O  0.43891569  0.47046797  0.10517352    -0.78300
O150        O  0.49530615  0.62908403  0.45518717    -0.78400
Co151      Co  0.42721768  0.45414337  0.99393513     1.51500
Co152      Co  0.56742120  0.59033340  0.99833656     1.51700
Co153      Co  0.47631639  0.54635747  0.44233072     1.51600
Co154      Co  0.51809383  0.49748524  0.07707749     1.51500
O155        O  0.49227774  0.52667779  0.01769941    -1.40300
C156        C  0.39615570  0.42029850  0.09270335     1.11300
C157        C  0.51534531  0.65878487  0.49289707     1.11400
C158        C  0.36208919  0.51034388  0.48660833     1.11300
C159        C  0.60048520  0.61890594  0.09844376     1.11300
C160        C  0.31344790  0.51978900  0.49341770    -0.16700
C161        C  0.27246742  0.52805905  0.49750362     0.07400
C162        C  0.22270380  0.53470993  0.00205920     0.09200
C163        C  0.17719893  0.53483843  0.00706642    -0.17600
C164        C  0.66560254  0.51115900  0.00518908    -0.16700
C165        C  0.71084583  0.51052899  0.00075173     0.07400
C166        C  0.76688867  0.51636491  0.49710173     0.09200
C167        C  0.81609503  0.52457571  0.49339767    -0.17600
C168        C  0.50216983  0.84871134  0.49796196    -0.16700
C169        C  0.49874126  0.80193348  0.50436920     0.07400
C170        C  0.50102653  0.74980724  0.50614414     0.09200
C171        C  0.50700264  0.70749702  0.50231441    -0.17600
C172        C  0.50633079  0.20727318  0.99280343    -0.16700
C173        C  0.51067696  0.25538022  0.99063429     0.07400
C174        C  0.51011959  0.30908696  0.99346269     0.09200
C175        C  0.50496092  0.35205112  0.99945262    -0.17600
C176        C  0.17179173  0.69937369  0.00691156    -0.16700
C177        C  0.21673120  0.74517443  0.99972170     0.07400
C178        C  0.26748748  0.80041009  0.49171292     0.09200
C179        C  0.31014480  0.84832271  0.48528968    -0.17600
C180        C  0.66760643  0.20420590  0.99634670    -0.16700
C181        C  0.71427959  0.24898515  0.99367394     0.07400
C182        C  0.77167694  0.29756040  0.49306677     0.09200
C183        C  0.82147816  0.33794732  0.49143093    -0.17600
C184        C  0.65837965  0.02292721  0.15969457    -0.11500
C185        C  0.62968103  0.02595134  0.12725357    -0.13000
C186        C  0.67565375  0.03130289  0.33536762    -0.11500
C187        C  0.64866017  0.03238271  0.37065111    -0.13000
C188        C  0.63774111  0.66173856  0.13476521    -0.11500
C189        C  0.66710024  0.69318659  0.16803368    -0.13000
C190        C  0.64284711  0.65692735  0.37770265    -0.11500
C191        C  0.66914456  0.68566072  0.34342481    -0.13000
C192        C  0.74242162  0.87261602  0.25302264    -0.11500
C193        C  0.74197123  0.91906420  0.25033812    -0.13600
C194        C  0.99144850  0.68939446  0.16667246    -0.11500
C195        C  0.99121923  0.66009273  0.13291439    -0.13000
C196        C  0.00636025  0.69672330  0.34203939    -0.11500
C197        C  0.00754096  0.66940033  0.37626696    -0.13000
C198        C  0.89483462  0.76928668  0.24550931    -0.11500
C199        C  0.84841490  0.76954006  0.24437197    -0.13000
C200        C  0.32179788  0.02131271  0.15179506    -0.11500
C201        C  0.35153938  0.02393433  0.11785004    -0.13000
C202        C  0.33830862  0.03152852  0.32694092    -0.11500
C203        C  0.36777552  0.03362872  0.36093850    -0.13000
C204        C  0.14870190  0.91927252  0.23650180    -0.11500
C205        C  0.10229296  0.87265046  0.23806611    -0.13000
C206        C  0.32476609  0.35434509  0.16100700    -0.11500
C207        C  0.35388927  0.38327756  0.12771831    -0.13000
C208        C  0.36203063  0.37975200  0.37086509    -0.11500
C209        C  0.33303302  0.35197740  0.33635876    -0.13000
C210        C  0.25112174  0.17311349  0.23195285    -0.11500
C211        C  0.25105119  0.12666809  0.23078185    -0.13000
C212        C  0.99487856  0.35173014  0.16355570    -0.11500
C213        C  0.99619749  0.38232149  0.13060910    -0.13000
C214        C  0.01160981  0.36543643  0.33879978    -0.11500
C215        C  0.01360137  0.39409099  0.37354082    -0.13000
C216        C  0.10247250  0.27779922  0.23712098    -0.11500
C217        C  0.14873277  0.27741254  0.23808160    -0.13000
C218        C  0.84869132  0.12852469  0.24727307    -0.11500
C219        C  0.89534522  0.17536733  0.24940311    -0.13000
C220        C  0.00598718  0.33005845  0.79594642     0.88300
C221        C  0.05862638  0.32073481  0.78859017    -0.51900
C222        C  0.05454009  0.28882487  0.74846490     0.11200
C223        C  0.99698451  0.26883330  0.71894674     0.22200
C224        C  0.00146183  0.35883848  0.75019454    -0.52700
C225        C  0.99681803  0.32747965  0.70965829     0.11300
C226        C  0.95138372  0.26775108  0.79559754    -0.52200
C227        C  0.94616307  0.23509385  0.75554322     0.11900
H228        H  0.09623817  0.33820251  0.81295782     0.16400
H229        H  0.99337524  0.24298411  0.68606124     0.02100
H230        H  0.00263786  0.40108275  0.74981792     0.16700
H231        H  0.91935303  0.25103324  0.82442543     0.16500
C232        C  0.29927895  0.32129418  0.79275719     0.88300
C233        C  0.29049708  0.25916702  0.78564815    -0.51900
C234        C  0.26094448  0.23145129  0.74453789     0.11200
C235        C  0.24262742  0.26878544  0.71400973     0.22200
C236        C  0.33035710  0.35482590  0.74762680    -0.52700
C237        C  0.30092470  0.32777022  0.70651531     0.11300
C238        C  0.23676328  0.31297456  0.78974322    -0.52200
C239        C  0.20696660  0.28556275  0.74842724     0.11900
H240        H  0.30687755  0.23904936  0.81068538     0.16400
H241        H  0.21889317  0.24667314  0.68033835     0.02100
H242        H  0.37209714  0.39658589  0.74809900     0.16700
H243        H  0.21822788  0.32843881  0.81729202     0.16500
C244        C  0.30240324  0.02756701  0.78508488     0.88300
C245        C  0.23997364  0.97304830  0.78390968    -0.51900
C246        C  0.20765968  0.96976585  0.74434181     0.11200
C247        C  0.24107663  0.02195642  0.70956296     0.22200
C248        C  0.33076545  0.02470489  0.73823604    -0.52700
C249        C  0.29905435  0.02181854  0.69869179     0.11300
C250        C  0.29322427  0.08071235  0.78037503    -0.52200
C251        C  0.26126870  0.07816890  0.74094350     0.11900
H252        H  0.22314216  0.93953595  0.81149072     0.16400
H253        H  0.21527923  0.01973570  0.67726351     0.02100
H254        H  0.37277443  0.02554212  0.73641025     0.16700
H255        H  0.31111262  0.11760386  0.80570090     0.16500
C256        C  0.00249852  0.72619719  0.79864044     0.88300
C257        C  0.94849285  0.73485451  0.79635767    -0.51900
C258        C  0.94515028  0.76116156  0.75526746     0.11200
C259        C  0.99674630  0.77668077  0.72035070     0.22200
C260        C  0.99840243  0.69122978  0.75331775    -0.52700
C261        C  0.99519868  0.71720595  0.71239763     0.11300
C262        C  0.05616346  0.78788612  0.79135143    -0.52200
C263        C  0.05356153  0.81464355  0.75052764     0.11900
H264        H  0.91526585  0.72034172  0.82422682     0.16400
H265        H  0.99446668  0.79795990  0.68686726     0.02100
H266        H  0.99807278  0.64940284  0.75352164     0.16700
H267        H  0.09344174  0.80846265  0.81611873     0.16500
C268        C  0.69909014  0.71985440  0.80082899     0.88300
C269        C  0.70656976  0.78194993  0.79977183    -0.51900
C270        C  0.73432118  0.81337375  0.75988088     0.11200
C271        C  0.75202343  0.77852128  0.72418250     0.22200
C272        C  0.66614799  0.68931960  0.75475698    -0.52700
C273        C  0.69320428  0.71926265  0.71436093     0.11300
C274        C  0.76126393  0.72929080  0.79479247    -0.52200
C275        C  0.78954618  0.75976567  0.75486866     0.11900
H276        H  0.69069997  0.79934287  0.82794430     0.16400
H277        H  0.77455037  0.80324011  0.69142506     0.02100
H278        H  0.62504727  0.64696057  0.75408627     0.16700
H279        H  0.78110693  0.71255496  0.81979981     0.16500
C280        C  0.69309808  0.02328528  0.70105125     0.88300
C281        C  0.70012423  0.96866307  0.70417345    -0.51900
C282        C  0.73232896  0.96907721  0.74270830     0.11200
C283        C  0.75444000  0.02545373  0.77528786     0.22200
C284        C  0.66578345  0.02629749  0.74854823    -0.52700
C285        C  0.69722781  0.02766420  0.78780781     0.11300
C286        C  0.75608894  0.07639276  0.70196937    -0.52200
C287        C  0.78883254  0.07825662  0.74053526     0.11900
H288        H  0.68113122  0.93259441  0.67808285     0.16400
H289        H  0.78056119  0.02647297  0.80696244     0.02100
H290        H  0.62491450  0.02761704  0.75092034     0.16700
H291        H  0.77310947  0.11033965  0.67469809     0.16500
O292        O  0.44710402  0.03152241  0.90119117    -0.78300
O293        O  0.59889762  0.13420717  0.54706853    -0.78400
O294        O  0.48264390  0.11159079  0.46876518    -0.78400
O295        O  0.62785883  0.02588816  0.95307828    -0.78300
O296        O  0.49641479  0.13409030  0.54492463    -0.78400
O297        O  0.56160685  0.02781359  0.90414716    -0.78400
O298        O  0.59688268  0.10988984  0.47141577    -0.78300
O299        O  0.37150115  0.02552587  0.94326749    -0.78400
C300        C  0.39637891  0.02970951  0.90340926     1.11400
C301        C  0.61763897  0.14770558  0.50475055     1.11200
C302        C  0.49602797  0.14896471  0.50214267     1.11400
C303        C  0.61120233  0.02812333  0.91095516     1.11300
O304        O  0.49056215  0.91329897  0.94917698    -0.78300
O305        O  0.43784948  0.02382308  0.59618644    -0.78400
O306        O  0.37288564  0.94681773  0.50649969    -0.78300
O307        O  0.61735426  0.04921482  0.54905482    -0.78300
O308        O  0.54471561  0.02478892  0.59976892    -0.78400
O309        O  0.39272108  0.91496750  0.94214269    -0.78300
O310        O  0.54158463  0.94824550  0.51382188    -0.78300
O311        O  0.39316996  0.04678928  0.54108801    -0.78400
Co312      Co  0.47642829  0.97939928  0.93398741     1.51500
Co313      Co  0.51733334  0.07440539  0.56818499     1.51700
Co314      Co  0.42887499  0.02717198  0.48515924     1.51600
Co315      Co  0.56688256  0.02708717  0.48984102     1.51500
O316        O  0.49239826  0.01824870  0.50881654    -1.40300
C317        C  0.51116690  0.90546066  0.98694804     1.11300
C318        C  0.39535778  0.03089759  0.58335894     1.11400
C319        C  0.36066726  0.90543149  0.97795183     1.11300
C320        C  0.59563267  0.03298984  0.59039630     1.11300
O321        O  0.00247421  0.39888627  0.95572738    -0.78300
O322        O  0.07967004  0.62412489  0.48168507    -0.78400
O323        O  0.00499305  0.58595518  0.91238163    -0.78400
O324        O  0.10383377  0.52827640  0.55770274    -0.78300
O325        O  0.99447200  0.65048394  0.95805918    -0.78400
O326        O  0.08370155  0.51207057  0.48132688    -0.78400
O327        O  0.10093509  0.62976139  0.55791873    -0.78300
O328        O  0.00892558  0.47295366  0.91206306    -0.78400
C329        C  0.00793356  0.42285301  0.91544092     1.11400
C330        C  0.11578978  0.64792693  0.51561829     1.11200
C331        C  0.00182764  0.63388759  0.91717366     1.11400
C332        C  0.11983521  0.52662453  0.51538118     1.11300
O333        O  0.01909947  0.42299482  0.55346839    -0.78300
O334        O  0.91390038  0.56419643  0.51700978    -0.78400
O335        O  0.89054712  0.41868624  0.94956439    -0.78300
O336        O  0.98888811  0.57318816  0.60742598    -0.78300
O337        O  0.01266395  0.64358747  0.55495678    -0.78400
O338        O  0.91907483  0.39868781  0.51532019    -0.78300
O339        O  0.99242559  0.46699247  0.60714001    -0.78300
O340        O  0.88709011  0.51585501  0.95044400    -0.78400
Co341      Co  0.99972836  0.45610870  0.49605130     1.51500
Co342      Co  0.99517466  0.59166599  0.49688863     1.51700
Co343      Co  0.95456221  0.50182580  0.94134580     1.51600
Co344      Co  0.04171322  0.54709689  0.57856978     1.51500
O345        O  0.98773802  0.51884427  0.51787523    -1.40300
C346        C  0.00185586  0.42529834  0.59542385     1.11300
C347        C  0.87448454  0.53498314  0.98705461     1.11400
C348        C  0.87927599  0.38700905  0.98558248     1.11300
C349        C  0.99650342  0.62359226  0.59668047     1.11300
O350        O  0.36806863  0.39606782  0.95332047    -0.78300
O351        O  0.59583791  0.53545890  0.48063569    -0.78400
O352        O  0.55981100  0.57642128  0.91381503    -0.78400
O353        O  0.49512676  0.41560824  0.55315798    -0.78300
O354        O  0.62731434  0.64932654  0.95994479    -0.78400
O355        O  0.48004243  0.42266900  0.47714929    -0.78400
O356        O  0.59913492  0.51712029  0.55634122    -0.78300
O357        O  0.44270138  0.46312423  0.90965011    -0.78400
C358        C  0.39183220  0.41443248  0.91291376     1.11400
C359        C  0.61694756  0.51980550  0.51398680     1.11200
C360        C  0.60869886  0.62671308  0.91880556     1.11400
C361        C  0.49410145  0.39958662  0.51010462     1.11300
O362        O  0.39276686  0.40107916  0.55035311    -0.78300
O363        O  0.54380067  0.64615961  0.52113523    -0.78400
O364        O  0.39464058  0.53165316  0.95107553    -0.78300
O365        O  0.54910799  0.57687857  0.60884486    -0.78300
O366        O  0.62016918  0.62211667  0.55645158    -0.78400
O367        O  0.37227178  0.48021942  0.51504965    -0.78300
O368        O  0.43892092  0.47048183  0.60516077    -0.78300
O369        O  0.49530298  0.62908757  0.95520270    -0.78400
Co370      Co  0.42722820  0.45414152  0.49392308     1.51500
Co371      Co  0.56742997  0.59033383  0.49832544     1.51700
Co372      Co  0.47630882  0.54635991  0.94234531     1.51600
Co373      Co  0.51809871  0.49749446  0.57706889     1.51500
O374        O  0.49228296  0.52668126  0.51768691    -1.40300
C375        C  0.39616412  0.42030890  0.59269491     1.11300
C376        C  0.51533813  0.65878471  0.99291455     1.11400
C377        C  0.36209154  0.51035986  0.98663249     1.11300
C378        C  0.60049231  0.61891346  0.59843399     1.11300
C379        C  0.31346072  0.51981949  0.99344834    -0.16700
C380        C  0.27248729  0.52810044  0.99753308     0.07400
C381        C  0.22268289  0.53466651  0.50203586     0.09200
C382        C  0.17718358  0.53480516  0.50704892    -0.17600
C383        C  0.66559722  0.51114466  0.50518914    -0.16700
C384        C  0.71084002  0.51051266  0.50076152     0.07400
C385        C  0.76689057  0.51637220  0.99707953     0.09200
C386        C  0.81609288  0.52457158  0.99337140    -0.17600
C387        C  0.50217483  0.84871608  0.99795615    -0.16700
C388        C  0.49874106  0.80193728  0.00437065     0.07400
C389        C  0.50102289  0.74980979  0.00615546     0.09200
C390        C  0.50699755  0.70749823  0.00233158    -0.17600
C391        C  0.50634638  0.20728283  0.49280810    -0.16700
C392        C  0.51069563  0.25539086  0.49063732     0.07400
C393        C  0.51014046  0.30909842  0.49346455     0.09200
C394        C  0.50498087  0.35206191  0.49945363    -0.17600
C395        C  0.17179142  0.69937560  0.50689764    -0.16700
C396        C  0.21672835  0.74518025  0.49971578     0.07400
C397        C  0.26749299  0.80039922  0.99170337     0.09200
C398        C  0.31015103  0.84830981  0.98527094    -0.17600
C399        C  0.66760692  0.20420101  0.49635271    -0.16700
C400        C  0.71427498  0.24898588  0.49368069     0.07400
C401        C  0.77168763  0.29755000  0.99305751     0.09200
C402        C  0.82149163  0.33793176  0.99141989    -0.17600
C403        C  0.65837308  0.02291297  0.65969426    -0.11500
C404        C  0.62966969  0.02593611  0.62725762    -0.13000
C405        C  0.67566738  0.03131257  0.83536200    -0.11500
C406        C  0.64867367  0.03239499  0.87064418    -0.13000
C407        C  0.63774925  0.66174279  0.63475831    -0.11500
C408        C  0.66710483  0.69318600  0.66803090    -0.13000
C409        C  0.64282886  0.65693402  0.87770823    -0.11500
C410        C  0.66912513  0.68566396  0.84342783    -0.13000
C411        C  0.74243124  0.87261875  0.75301915    -0.11500
C412        C  0.74198312  0.91906800  0.75033460    -0.13600
C413        C  0.99146586  0.68941159  0.66667475    -0.11500
C414        C  0.99124171  0.66011226  0.63291685    -0.13000
C415        C  0.00637505  0.69672608  0.84204039    -0.11500
C416        C  0.00755485  0.66939943  0.87626561    -0.13000
C417        C  0.89482956  0.76927753  0.74552342    -0.11500
C418        C  0.84840878  0.76952901  0.74438708    -0.13000
C419        C  0.32178702  0.02131627  0.65179559    -0.11500
C420        C  0.35153586  0.02394401  0.61785434    -0.13000
C421        C  0.33830830  0.03152934  0.82693639    -0.11500
C422        C  0.36777928  0.03362735  0.86092982    -0.13000
C423        C  0.14869289  0.91928658  0.73650870    -0.11500
C424        C  0.10228606  0.87266283  0.73807428    -0.13000
C425        C  0.32478561  0.35436600  0.66100842    -0.11500
C426        C  0.35390275  0.38329182  0.62771469    -0.13000
C427        C  0.36201532  0.37976116  0.87087581    -0.11500
C428        C  0.33302500  0.35199101  0.83636522    -0.13000
C429        C  0.25113516  0.17313272  0.73195448    -0.11500
C430        C  0.25106211  0.12668588  0.73078449    -0.13000
C431        C  0.99488557  0.35173827  0.66355240    -0.11500
C432        C  0.99620419  0.38233064  0.63060724    -0.13000
C433        C  0.01162021  0.36543783  0.83879634    -0.11500
C434        C  0.01361822  0.39409308  0.87353903    -0.13000
C435        C  0.10247953  0.27780832  0.73710726    -0.11500
C436        C  0.14874200  0.27742620  0.73806767    -0.13000
C437        C  0.84869362  0.12853004  0.74725968    -0.11500
C438        C  0.89534737  0.17537294  0.74939203    -0.13000
loop_ 
_geom_bond_atom_site_label_1 
_geom_bond_atom_site_label_2 
_geom_bond_distance 
_geom_bond_site_symmetry_2 
_ccdc_geom_bond_type 
C1            C2   1.525       .  S
C1            C7   1.532   1_455  S
C1            C5   1.525       .  S
C1          C214   1.467       .  S
C2            H9   1.087       .  S
C2            C3   1.362       .  D
C3            C4   1.555   1_455  S
C3          C216   1.453       .  S
C4            C8   1.559       .  S
C4            C6   1.557       .  S
C4           H10   1.111       .  S
C5           H11   1.087       .  S
C5            C6   1.361   1_455  D
C6          C212   1.455       .  S
C7           H12   1.087       .  S
C7            C8   1.365       .  D
C8          C219   1.461       .  S
C13          C14   1.530       .  S
C13          C19   1.537       .  S
C13          C17   1.526       .  S
C13         C209   1.476       .  S
C14          H21   1.088       .  S
C14          C15   1.365       .  D
C15          C16   1.547       .  S
C15         C210   1.450       .  S
C16          C20   1.545       .  S
C16          C18   1.544       .  S
C16          H22   1.111       .  S
C17          H23   1.087       .  S
C17          C18   1.360       .  D
C18         C206   1.441       .  S
C19          H24   1.087       .  S
C19          C20   1.370       .  D
C20         C217   1.454       .  S
C25          C26   1.533   1_545  S
C25          C31   1.528       .  S
C25          C29   1.525       .  S
C25         C202   1.470       .  S
C26          H33   1.087       .  S
C26          C27   1.368       .  D
C27          C28   1.548   1_565  S
C27         C204   1.453       .  S
C28          C32   1.548       .  S
C28          C30   1.546       .  S
C28          H34   1.111       .  S
C29          H35   1.087       .  S
C29          C30   1.361       .  D
C30         C200   1.443       .  S
C31          H36   1.087       .  S
C31          C32   1.364       .  D
C32         C211   1.449       .  S
C37          C38   1.538   1_455  S
C37          C43   1.529       .  S
C37          C41   1.526   1_455  S
C37         C196   1.475       .  S
C38          H45   1.086       .  S
C38          C39   1.370       .  D
C39          C40   1.547       .  S
C39         C198   1.458       .  S
C40          C44   1.550   1_655  S
C40          C42   1.546       .  S
C40          H46   1.111       .  S
C41          H47   1.087       .  S
C41          C42   1.361       .  D
C42         C194   1.443       .  S
C43          H48   1.088       .  S
C43          C44   1.364       .  D
C44         C205   1.452       .  S
C49          C50   1.532       .  S
C49          C55   1.524       .  S
C49          C53   1.525       .  S
C49         C191   1.466       .  S
C50          H57   1.086       .  S
C50          C51   1.366       .  D
C51          C52   1.562       .  S
C51         C192   1.466       .  S
C52          C56   1.558       .  S
C52          C54   1.559       .  S
C52          H58   1.111       .  S
C53          H59   1.087       .  S
C53          C54   1.361       .  D
C54         C189   1.457       .  S
C55          H60   1.088       .  S
C55          C56   1.362       .  D
C56         C199   1.456       .  S
C61          C62   1.529   1_545  S
C61          C67   1.528       .  S
C61          C65   1.528       .  S
C61         C184   1.467       .  S
C62          H69   1.087       .  S
C62          C63   1.364       .  D
C63          C64   1.564   1_565  S
C63         C193   1.466       .  S
C64          C68   1.561       .  S
C64          C66   1.563       .  S
C64          H70   1.110       .  S
C65          H71   1.087       .  S
C65          C66   1.361       .  D
C66         C186   1.465       .  S
C67          H72   1.088       .  S
C67          C68   1.362       .  D
C68         C218   1.461       .  S
O73          C81   1.303       .  A
O73         Co93   2.086   1_545  S
O74          C82   1.265       .  A
O74         Co94   2.000       .  S
O75          C83   1.259   1_556  A
O75         Co95   1.987       .  S
O76          C84   1.269       .  A
O76        Co315   1.908       .  S
O77          C83   1.264       .  A
O77         Co94   2.006       .  S
O78          C84   1.305       .  A
O78         Co93   2.107   1_545  S
O79          C82   1.257   1_556  A
O79         Co96   1.967       .  S
O80          C81   1.268       .  A
O80        Co314   1.886       .  S
C81         C203   1.436       .  S
C82         C180   1.416   1_554  S
C83         C172   1.433   1_554  S
C84         C187   1.461       .  S
O85          C98   1.251       .  A
O85         Co93   1.987       .  S
O86          C99   1.265       .  A
O86         Co94   1.983       .  S
O87         C319   1.241   1_554  A
O87         Co95   1.959   1_564  S
O88         C101   1.268       .  A
O88         Co96   2.008   1_554  S
O89         C101   1.264       .  A
O89         Co94   1.981       .  S
O90         C100   1.250       .  A
O90         Co93   1.993       .  S
O91         C317   1.239   1_554  A
O91         Co96   1.945   1_564  S
O92          C99   1.268       .  A
O92         Co95   2.011   1_554  S
Co93        O316   2.262   1_565  S
Co94         O97   2.079       .  S
Co95        O299   1.886       .  S
Co95         O97   1.907   1_556  S
Co96        O295   1.908       .  S
Co96         O97   1.916   1_556  S
O97        Co312   2.262   1_544  S
C98         O310   1.239       .  A
C98         C168   1.415       .  S
C99         C201   1.438       .  S
C100        O306   1.241       .  A
C100        C179   1.426       .  S
C101        C185   1.434       .  S
O102        C110   1.268       .  A
O102       Co341   1.892   1_455  S
O103        C111   1.256   1_556  A
O103       Co123   1.974   1_455  S
O104        C112   1.300       .  A
O104       Co124   2.084   1_455  S
O105        C113   1.263       .  A
O105       Co125   2.002       .  S
O106        C112   1.267   1_655  A
O106       Co342   1.897       .  S
O107        C113   1.255   1_556  A
O107       Co122   1.976   1_455  S
O108        C111   1.266       .  A
O108       Co125   2.013       .  S
O109        C110   1.299       .  A
O109       Co124   2.077   1_455  S
C110        C215   1.433       .  S
C111        C176   1.426       .  S
C112        C197   1.440       .  S
C113        C163   1.422       .  S
O114        C127   1.269       .  A
O114       Co122   2.013   1_454  S
O115        C347   1.241   1_554  A
O115       Co123   1.953   1_554  S
O116        C129   1.248       .  A
O116       Co124   1.980       .  S
O117        C130   1.267       .  A
O117       Co125   1.987   1_655  S
O118        C130   1.267   1_455  A
O118       Co123   2.004   1_454  S
O119        C348   1.242   1_554  A
O119       Co122   1.954   1_554  S
O120        C127   1.270   1_655  A
O120       Co125   1.999   1_655  S
O121        C128   1.249       .  A
O121       Co124   1.987       .  S
Co122       O321   1.892   1_655  S
Co122       O126   1.909   1_556  S
Co123       O325   1.897       .  S
Co123       O126   1.909   1_556  S
Co124       O345   2.264       .  S
Co125       O126   2.085   1_455  S
O126       Co343   2.264   1_554  S
C127        C213   1.451   1_455  S
C128        O334   1.241       .  A
C128        C167   1.419       .  S
C129        O338   1.242       .  A
C129        C183   1.416       .  S
C130        C195   1.437       .  S
O131        C139   1.267       .  A
O131       Co370   1.894       .  S
O132        C140   1.255   1_556  A
O132       Co152   1.974       .  S
O133        C141   1.298       .  A
O133       Co153   2.074       .  S
O134        C142   1.267       .  A
O134       Co154   2.014       .  S
O135        C141   1.268       .  A
O135       Co371   1.893       .  S
O136        C142   1.258   1_556  A
O136       Co151   1.981       .  S
O137        C140   1.263       .  A
O137       Co154   1.998       .  S
O138        C139   1.301       .  A
O138       Co153   2.090       .  S
C139        C208   1.442       .  S
C140        C164   1.419       .  S
C141        C190   1.432       .  S
C142        C175   1.433   1_554  S
O143        C156   1.267       .  A
O143       Co151   2.003   1_554  S
O144        C376   1.240   1_554  A
O144       Co152   1.948   1_554  S
O145        C158   1.248       .  A
O145       Co153   1.984       .  S
O146        C159   1.271       .  A
O146       Co154   2.003       .  S
O147        C159   1.269       .  A
O147       Co152   2.014   1_554  S
O148        C377   1.243   1_554  A
O148       Co151   1.961   1_554  S
O149        C156   1.267       .  A
O149       Co154   1.984       .  S
O150        C157   1.250       .  A
O150       Co153   1.986       .  S
Co151       O350   1.894       .  S
Co151       O155   1.911   1_556  S
Co152       O354   1.893       .  S
Co152       O155   1.910   1_556  S
Co153       O374   2.263       .  S
Co154       O155   2.083       .  S
O155       Co372   2.263   1_554  S
C156        C207   1.435       .  S
C157        O363   1.240       .  A
C157        C171   1.415       .  S
C158        O367   1.243       .  A
C158        C160   1.423       .  S
C159        C188   1.453       .  S
C160        C161   1.198       .  T
C161        C381   1.400       .  S
C162        C163   1.198       .  T
C162        C380   1.400   1_554  S
C164        C165   1.196       .  T
C165        C385   1.397   1_554  S
C166        C167   1.196       .  T
C166        C384   1.397       .  S
C168        C169   1.194       .  T
C169        C170   1.392       .  S
C170        C171   1.194       .  T
C172        C173   1.204       .  T
C173        C174   1.410       .  S
C174        C175   1.204       .  T
C176        C177   1.201   1_554  T
C177        C397   1.404       .  S
C178        C179   1.201       .  T
C178        C396   1.404       .  S
C180        C181   1.195       .  T
C181        C401   1.395       .  S
C182        C183   1.195       .  T
C182        C400   1.395       .  S
C184        C185   1.205       .  T
C186        C187   1.221       .  T
C188        C189   1.217       .  T
C190        C191   1.205       .  T
C192        C193   1.221       .  T
C194        C195   1.207       .  T
C196        C197   1.210       .  T
C198        C199   1.216       .  T
C200        C201   1.207       .  T
C202        C203   1.207       .  T
C204        C205   1.213       .  T
C206        C207   1.206       .  T
C208        C209   1.210       .  T
C210        C211   1.211       .  T
C212        C213   1.215       .  T
C214        C215   1.205       .  T
C216        C217   1.213       .  T
C218        C219   1.218       .  T
C220        C221   1.525       .  S
C220        C226   1.532   1_455  S
C220        C224   1.525       .  S
C220        C433   1.467       .  S
C221        H228   1.087       .  S
C221        C222   1.362       .  D
C222        C223   1.555   1_455  S
C222        C435   1.453       .  S
C223        C227   1.559       .  S
C223        C225   1.557       .  S
C223        H229   1.111       .  S
C224        H230   1.087       .  S
C224        C225   1.361   1_455  D
C225        C431   1.455       .  S
C226        H231   1.087       .  S
C226        C227   1.365       .  D
C227        C438   1.461       .  S
C232        C233   1.530       .  S
C232        C238   1.537       .  S
C232        C236   1.526       .  S
C232        C428   1.476       .  S
C233        H240   1.088       .  S
C233        C234   1.365       .  D
C234        C235   1.547       .  S
C234        C429   1.450       .  S
C235        C239   1.545       .  S
C235        C237   1.544       .  S
C235        H241   1.111       .  S
C236        H242   1.087       .  S
C236        C237   1.360       .  D
C237        C425   1.441       .  S
C238        H243   1.087       .  S
C238        C239   1.370       .  D
C239        C436   1.454       .  S
C244        C245   1.533   1_545  S
C244        C250   1.528       .  S
C244        C248   1.525       .  S
C244        C421   1.470       .  S
C245        H252   1.087       .  S
C245        C246   1.368       .  D
C246        C247   1.548   1_565  S
C246        C423   1.453       .  S
C247        C251   1.548       .  S
C247        C249   1.546       .  S
C247        H253   1.111       .  S
C248        H254   1.087       .  S
C248        C249   1.361       .  D
C249        C419   1.443       .  S
C250        H255   1.087       .  S
C250        C251   1.364       .  D
C251        C430   1.449       .  S
C256        C257   1.538   1_455  S
C256        C262   1.529       .  S
C256        C260   1.526   1_455  S
C256        C415   1.475       .  S
C257        H264   1.086       .  S
C257        C258   1.370       .  D
C258        C259   1.547       .  S
C258        C417   1.458       .  S
C259        C263   1.550   1_655  S
C259        C261   1.546       .  S
C259        H265   1.111       .  S
C260        H266   1.087       .  S
C260        C261   1.361       .  D
C261        C413   1.443       .  S
C262        H267   1.088       .  S
C262        C263   1.364       .  D
C263        C424   1.452       .  S
C268        C269   1.532       .  S
C268        C274   1.524       .  S
C268        C272   1.525       .  S
C268        C410   1.466       .  S
C269        H276   1.086       .  S
C269        C270   1.366       .  D
C270        C271   1.562       .  S
C270        C411   1.466       .  S
C271        C275   1.558       .  S
C271        C273   1.559       .  S
C271        H277   1.111       .  S
C272        H278   1.087       .  S
C272        C273   1.361       .  D
C273        C408   1.457       .  S
C274        H279   1.088       .  S
C274        C275   1.362       .  D
C275        C418   1.457       .  S
C280        C281   1.529   1_545  S
C280        C286   1.528       .  S
C280        C284   1.528       .  S
C280        C403   1.467       .  S
C281        H288   1.087       .  S
C281        C282   1.364       .  D
C282        C283   1.564   1_565  S
C282        C412   1.466       .  S
C283        C287   1.561       .  S
C283        C285   1.563       .  S
C283        H289   1.110       .  S
C284        H290   1.087       .  S
C284        C285   1.361       .  D
C285        C405   1.465       .  S
C286        H291   1.088       .  S
C286        C287   1.362       .  D
C287        C437   1.461       .  S
O292        C300   1.303       .  A
O292       Co312   2.086   1_545  S
O293        C301   1.265       .  A
O293       Co313   2.000       .  S
O294        C302   1.259       .  A
O294       Co314   1.987       .  S
O295        C303   1.269       .  A
O296        C302   1.264       .  A
O296       Co313   2.006       .  S
O297        C303   1.305       .  A
O297       Co312   2.107   1_545  S
O298        C301   1.257       .  A
O298       Co315   1.967       .  S
O299        C300   1.268       .  A
C300        C422   1.436       .  S
C301        C399   1.416       .  S
C302        C391   1.433       .  S
C303        C406   1.461       .  S
O304        C317   1.251       .  A
O304       Co312   1.987       .  S
O305        C318   1.265       .  A
O305       Co313   1.983       .  S
O306       Co314   1.959   1_565  S
O307        C320   1.268       .  A
O307       Co315   2.008       .  S
O308        C320   1.264       .  A
O308       Co313   1.981       .  S
O309        C319   1.250       .  A
O309       Co312   1.993       .  S
O310       Co315   1.945   1_565  S
O311        C318   1.268       .  A
O311       Co314   2.011       .  S
Co313       O316   2.079       .  S
Co314       O316   1.907       .  S
Co315       O316   1.916       .  S
C317        C387   1.415       .  S
C318        C420   1.438       .  S
C319        C398   1.426       .  S
C320        C404   1.434       .  S
O321        C329   1.268       .  A
O322        C330   1.256       .  A
O322       Co342   1.974   1_455  S
O323        C331   1.300       .  A
O323       Co343   2.084   1_455  S
O324        C332   1.263       .  A
O324       Co344   2.002       .  S
O325        C331   1.267   1_655  A
O326        C332   1.255       .  A
O326       Co341   1.976   1_455  S
O327        C330   1.266       .  A
O327       Co344   2.013       .  S
O328        C329   1.299       .  A
O328       Co343   2.077   1_455  S
C329        C434   1.433       .  S
C330        C395   1.426       .  S
C331        C416   1.440       .  S
C332        C382   1.422       .  S
O333        C346   1.269       .  A
O333       Co341   2.013   1_455  S
O334       Co342   1.953       .  S
O335        C348   1.248       .  A
O335       Co343   1.980       .  S
O336        C349   1.267       .  A
O336       Co344   1.987   1_655  S
O337        C349   1.267   1_455  A
O337       Co342   2.004   1_455  S
O338       Co341   1.954       .  S
O339        C346   1.270   1_655  A
O339       Co344   1.999   1_655  S
O340        C347   1.249       .  A
O340       Co343   1.987       .  S
Co341       O345   1.909       .  S
Co342       O345   1.909       .  S
Co344       O345   2.085   1_455  S
C346        C432   1.451   1_455  S
C347        C386   1.419       .  S
C348        C402   1.416       .  S
C349        C414   1.437       .  S
O350        C358   1.267       .  A
O351        C359   1.255       .  A
O351       Co371   1.974       .  S
O352        C360   1.298       .  A
O352       Co372   2.074       .  S
O353        C361   1.267       .  A
O353       Co373   2.014       .  S
O354        C360   1.268       .  A
O355        C361   1.258       .  A
O355       Co370   1.981       .  S
O356        C359   1.263       .  A
O356       Co373   1.998       .  S
O357        C358   1.301       .  A
O357       Co372   2.090       .  S
C358        C427   1.442       .  S
C359        C383   1.419       .  S
C360        C409   1.432       .  S
C361        C394   1.433       .  S
O362        C375   1.267       .  A
O362       Co370   2.004       .  S
O363       Co371   1.948       .  S
O364        C377   1.248       .  A
O364       Co372   1.984       .  S
O365        C378   1.271       .  A
O365       Co373   2.003       .  S
O366        C378   1.269       .  A
O366       Co371   2.014       .  S
O367       Co370   1.961       .  S
O368        C375   1.267       .  A
O368       Co373   1.984       .  S
O369        C376   1.250       .  A
O369       Co372   1.986       .  S
Co370       O374   1.912       .  S
Co371       O374   1.910       .  S
Co373       O374   2.083       .  S
C375        C426   1.435       .  S
C376        C390   1.415   1_556  S
C377        C379   1.423       .  S
C378        C407   1.453       .  S
C379        C380   1.198       .  T
C381        C382   1.198       .  T
C383        C384   1.196       .  T
C385        C386   1.196       .  T
C387        C388   1.194   1_556  T
C388        C389   1.392       .  S
C389        C390   1.194       .  T
C391        C392   1.204       .  T
C392        C393   1.410       .  S
C393        C394   1.204       .  T
C395        C396   1.201       .  T
C397        C398   1.201       .  T
C399        C400   1.195       .  T
C401        C402   1.195       .  T
C403        C404   1.205       .  T
C405        C406   1.221       .  T
C407        C408   1.217       .  T
C409        C410   1.205       .  T
C411        C412   1.221       .  T
C413        C414   1.207       .  T
C415        C416   1.210       .  T
C417        C418   1.216       .  T
C419        C420   1.207       .  T
C421        C422   1.207       .  T
C423        C424   1.213       .  T
C425        C426   1.206       .  T
C427        C428   1.210       .  T
C429        C430   1.211       .  T
C431        C432   1.215       .  T
C433        C434   1.205       .  T
C435        C436   1.213       .  T
C437        C438   1.218       .  T
