geometry optimzed in LAMMPS
_audit_creation_date              2020-12-01 
_audit_creation_method            'lammps2cif' 
_symmetry_space_group_name_H-M    'P1' 
_symmetry_Int_Tables_number       1 
_symmetry_cell_setting            triclinic 
loop_ 
_symmetry_equiv_pos_as_xyz 
  x,y,z 
_cell_length_a                    82.8150036 
_cell_length_b                    82.89658469308897 
_cell_length_c                    66.43528675130678 
_cell_angle_alpha                 89.93929498344698 
_cell_angle_beta                  90.03996755885804 
_cell_angle_gamma                 128.25583073405116 
loop_ 
_atom_site_label 
_atom_site_type_symbol 
_atom_site_fract_x 
_atom_site_fract_y 
_atom_site_fract_z 
_atom_site_charge 
C1          C  0.48491066  0.88164449  0.08165799     0.80800
N2          N  0.49444163  0.90189156  0.07851535    -0.77500
C3          C  0.48421353  0.90964973  0.08127956     0.83200
N4          N  0.46422470  0.89689399  0.08701574    -0.77500
C5          C  0.45447362  0.87658001  0.09000695     0.83300
N6          N  0.46483625  0.86890595  0.08731010    -0.79200
C7          C  0.56022516  0.47573998  0.80546215     0.80800
N8          N  0.55156552  0.48522866  0.80437463    -0.77500
C9          C  0.56274980  0.50509986  0.79866849     0.83200
N10         N  0.58286244  0.51556852  0.79409150    -0.77500
C11         C  0.59185118  0.50634741  0.79473513     0.83300
N12         N  0.58036899  0.48625244  0.80040298    -0.79200
C13         C  0.08175109  0.52800508  0.46154543     0.80800
N14         N  0.06138044  0.51639611  0.46596318    -0.77500
C15         C  0.05185532  0.52506617  0.46665110     0.83200
N16         N  0.06283522  0.54533519  0.46250668    -0.77500
C17         C  0.08309851  0.55706358  0.45779047     0.83300
N18         N  0.09257786  0.54832026  0.45733673    -0.79200
N19         N  0.34735009  0.01387025  0.94423422    -0.26700
N20         N  0.35971206  0.00935637  0.94848297    -0.34600
C21         C  0.34855327  0.99035251  0.95628939     0.01600
C22         C  0.32812825  0.98245367  0.95684131     0.07600
C23         C  0.32794983  0.99781074  0.94899383    -0.05500
H24         H  0.35494313  0.98308295  0.96178315     0.08300
H25         H  0.31482724  0.99760530  0.94736107     0.09500
Cu26       Cu  0.39127930  0.02987177  0.94490066     0.44200
Cu27       Cu  0.35785271  0.04220950  0.93379557     0.42000
Cu28       Cu  0.41346725  0.08264669  0.93373865     0.43900
N29         N  0.42242580  0.05405525  0.94604926    -0.34100
N30         N  0.43058838  0.07345394  0.94270473    -0.28400
C31         C  0.45085157  0.08536358  0.94674399    -0.04500
C32         C  0.45565176  0.07280183  0.95285555     0.07700
C33         C  0.43725301  0.05305090  0.95203621     0.01500
H34         H  0.46115630  0.10195808  0.94592287     0.09200
H35         H  0.43463369  0.03900798  0.95631685     0.08300
N36         N  0.39227050  0.08670833  0.92472068    -0.35600
N37         N  0.37214753  0.07201203  0.92494515    -0.27700
C38         C  0.36277441  0.07953218  0.91807087    -0.03000
C39         C  0.37769981  0.09991448  0.91309224     0.05600
C40         C  0.39623643  0.10398775  0.91751843     0.03700
H41         H  0.34629620  0.07069954  0.91659707     0.08800
H42         H  0.41148741  0.11834828  0.91538140     0.07700
N43         N  0.33469773  0.25150162  0.82070354    -0.26700
N44         N  0.34656277  0.27142693  0.82447917    -0.34600
C45         C  0.33773113  0.27930656  0.81708940     0.01600
C46         C  0.31942627  0.26369905  0.80812813     0.07600
C47         C  0.31794509  0.24621409  0.81056995    -0.05500
H48         H  0.34479009  0.29549785  0.81706501     0.08300
H49         H  0.30598732  0.23099889  0.80483050     0.09500
Cu50       Cu  0.37595594  0.28847735  0.83579251     0.44200
Cu51       Cu  0.34313236  0.23334302  0.82836825     0.42000
Cu52       Cu  0.39909977  0.26452715  0.83372025     0.43900
N53         N  0.40728690  0.30475672  0.83417305    -0.34100
N54         N  0.41600517  0.29584345  0.83260550    -0.28400
C55         C  0.43634616  0.31029384  0.82996234    -0.04500
C56         C  0.44052612  0.32923097  0.82983200     0.07700
C57         C  0.42176474  0.32514855  0.83258558     0.01500
H58         H  0.44715091  0.30720283  0.82784414     0.09200
H59         H  0.41875936  0.33612694  0.83273927     0.08300
N60         N  0.37857394  0.23365112  0.83967625    -0.35600
N61         N  0.35832954  0.22213546  0.83814175    -0.27700
C62         C  0.35004382  0.20296034  0.84430894    -0.03000
C63         C  0.36594502  0.20260847  0.84979992     0.05600
C64         C  0.38372297  0.22226092  0.84673205     0.03700
H65         H  0.33373937  0.19031294  0.84484578     0.08800
H66         H  0.39929745  0.22799243  0.84975654     0.07700
N67         N  0.05494709  0.71313857  0.34326857    -0.26700
N68         N  0.05373577  0.70480808  0.36073296    -0.34600
C69         C  0.03672921  0.69906163  0.37042781     0.01600
C70         C  0.02661594  0.70391278  0.35855081     0.07600
C71         C  0.03849605  0.71273913  0.34132610    -0.05500
H72         H  0.03155363  0.69099535  0.38468289     0.08300
H73         H  0.03513835  0.71791379  0.32817331     0.09500
Cu74       Cu  0.07351932  0.69910644  0.36995301     0.44200
Cu75       Cu  0.07840270  0.72309028  0.32284002     0.42000
Cu76       Cu  0.11229436  0.70977019  0.33589192     0.43900
N77         N  0.09082802  0.68937648  0.37481932    -0.34100
N78         N  0.10523132  0.69319698  0.36232380    -0.28400
C79         C  0.11267838  0.68365300  0.36912806    -0.04500
C80         C  0.10241188  0.67344011  0.38672864     0.07700
C81         C  0.08859381  0.67726575  0.38981026     0.01500
H82         H  0.12408449  0.68347755  0.36144220     0.09200
H83         H  0.07724187  0.67110033  0.40167078     0.08300
N84         N  0.11457586  0.72487143  0.30975937    -0.35600
N85         N  0.10246257  0.72966258  0.30507990    -0.27700
C86         C  0.10804939  0.73895478  0.28699027    -0.03000
C87         C  0.12442284  0.74006155  0.27994267     0.05600
C88         C  0.12813767  0.73098842  0.29475258     0.03700
H89         H  0.10064581  0.74439690  0.27947229     0.08800
H90         H  0.13969136  0.72874728  0.29452490     0.07700
N91         N  0.23593274  0.83356447  0.06360903    -0.26700
N92         N  0.24959356  0.83355115  0.05333080    -0.34600
C93         C  0.25624455  0.84647316  0.03769040     0.01600
C94         C  0.24626698  0.85496962  0.03803800     0.07600
C95         C  0.23363604  0.84664795  0.05475834    -0.05500
H96         H  0.26858565  0.85057184  0.02770001     0.08300
H97         H  0.22441205  0.85069729  0.06070977     0.09500
Cu98       Cu  0.26215827  0.81973531  0.06268573     0.44200
Cu99       Cu  0.22326840  0.81803153  0.09059665     0.42000
Cu100      Cu  0.25220166  0.80342213  0.11401207     0.43900
N101        N  0.28052831  0.81564211  0.07909709    -0.34100
N102        N  0.27711865  0.81003617  0.09819881    -0.28400
C103        C  0.29293729  0.81107745  0.10530367    -0.04500
C104        C  0.30701107  0.81772040  0.08990783     0.07700
C105        C  0.29859694  0.82040103  0.07348405     0.01500
H106        H  0.29455799  0.80821527  0.12078818     0.09200
H107        H  0.30558873  0.82641141  0.05885083     0.08300
N108        N  0.22732093  0.79934993  0.12719717    -0.35600
N109        N  0.21653118  0.80436559  0.11871871    -0.27700
C110        C  0.20145399  0.79954857  0.13139597    -0.03000
C111        C  0.20291500  0.79116709  0.14869323     0.05600
C112        C  0.21953322  0.79136900  0.14547744     0.03700
H113        H  0.19029718  0.80199354  0.12824301     0.08800
H114        H  0.22560253  0.78615340  0.15571908     0.07700
C115        C  0.56921168  0.08200469  0.01492107     0.80800
N116        N  0.55723158  0.06279076  0.02282965    -0.77500
C117        C  0.56580115  0.05595006  0.03355953     0.83200
N118        N  0.58645034  0.06827837  0.03620668    -0.77500
C119        C  0.59861864  0.08751189  0.02821857     0.83300
N120        N  0.58992225  0.09438612  0.01755046    -0.79200
N121        N  0.07915365  0.33394382  0.46852998    -0.26700
N122        N  0.07665034  0.34477791  0.45623140    -0.34600
C123        C  0.05778202  0.33242879  0.44814386     0.01600
C124        C  0.04790468  0.31285495  0.45566119     0.07600
C125        C  0.06187824  0.31428349  0.46853398    -0.05500
H126        H  0.05141632  0.33748414  0.43809617     0.08300
H127        H  0.05939159  0.30218164  0.47780379     0.09500
Cu128      Cu  0.09774997  0.37621789  0.45260541     0.44200
Cu129      Cu  0.10532305  0.34727867  0.48588738     0.42000
Cu130      Cu  0.13990525  0.40376718  0.48739668     0.43900
N131        N  0.11555596  0.40753025  0.45705504    -0.34100
N132        N  0.13082255  0.41773620  0.47013617    -0.28400
C133        C  0.13717643  0.43707304  0.47157454    -0.04500
C134        C  0.12546737  0.43912130  0.45859925     0.07700
C135        C  0.11182976  0.42005442  0.44978566     0.01500
H136        H  0.14848111  0.44835538  0.48226129     0.09200
H137        H  0.09905469  0.41518961  0.44005134     0.08300
N138        N  0.14355869  0.38534994  0.50462536    -0.35600
N139        N  0.13116376  0.36503116  0.50394753    -0.27700
C140        C  0.13762581  0.35798534  0.51733788    -0.03000
C141        C  0.15485771  0.37462447  0.52691665     0.05600
C142        C  0.15819514  0.39173206  0.51852744     0.03700
H143        H  0.13005989  0.34190430  0.52019910     0.08800
H144        H  0.17023820  0.40763855  0.52238901     0.07700
N145        N  0.26227208  0.34388798  0.71085851    -0.26700
N146        N  0.27494274  0.35669632  0.72510985    -0.34600
C147        C  0.28086920  0.34774941  0.73627349     0.01600
C148        C  0.27161134  0.32834472  0.72874131     0.07600
C149        C  0.25980505  0.32626054  0.71262521    -0.05500
H150        H  0.29162617  0.35507961  0.74867294     0.08300
H151        H  0.25063066  0.31321343  0.70263323     0.09500
Cu152      Cu  0.28521626  0.38632600  0.72849936     0.44200
Cu153      Cu  0.25026110  0.35223347  0.68955603     0.42000
Cu154      Cu  0.26669330  0.40515440  0.69608399     0.43900
N155        N  0.29685290  0.41656091  0.72849744    -0.34100
N156        N  0.28980087  0.42375811  0.71674436    -0.28400
C157        C  0.30146699  0.44423122  0.71921717    -0.04500
C158        C  0.31683169  0.45020131  0.73306679     0.07700
C159        C  0.31328987  0.43214911  0.73858900     0.01500
H160        H  0.29956282  0.45408870  0.71073015     0.09200
H161        H  0.32269906  0.43058042  0.74836879     0.08300
N162        N  0.24808833  0.38506302  0.67320650    -0.35600
N163        N  0.24225516  0.36628326  0.67065219    -0.27700
C164        C  0.23088019  0.35826586  0.65376882     0.04200
C165        C  0.22961765  0.37271959  0.64535110     0.05600
C166        C  0.24065109  0.38944884  0.65806109     0.03700
H167        H  0.22429952  0.34316992  0.64790352     0.08800
H168        H  0.24328209  0.40389269  0.65632058     0.07700
N169        N  0.79558548  0.70722046  0.70759878    -0.26700
N170        N  0.78401716  0.69924278  0.72391991    -0.34600
C171        C  0.78025316  0.71186935  0.73061295     0.01600
C172        C  0.78995290  0.72868759  0.71797702     0.07600
C173        C  0.79949445  0.72524385  0.70345307    -0.05500
H174        H  0.77070033  0.70877191  0.74347465     0.08300
H175        H  0.80828592  0.73489633  0.69066343     0.09500
Cu176      Cu  0.77266907  0.67114285  0.73606078     0.44200
Cu177      Cu  0.80423085  0.69233287  0.69141160     0.42000
Cu178      Cu  0.78704630  0.64300060  0.71287791     0.43900
N179        N  0.76054403  0.64168369  0.74446715    -0.34100
N180        N  0.76615316  0.63133331  0.73631385    -0.28400
C181        C  0.75411023  0.61204735  0.74359295    -0.04500
C182        C  0.74000887  0.61010120  0.75679251     0.07700
C183        C  0.74470361  0.62928890  0.75699132     0.01500
H184        H  0.75460780  0.59997361  0.73849960     0.09200
H185        H  0.73626465  0.63352461  0.76458328     0.08300
N186        N  0.80042481  0.65402668  0.68478767    -0.35600
N187        N  0.80654114  0.67168934  0.67697373    -0.27700
C188        C  0.81275722  0.67303395  0.65792438    -0.03000
C189        C  0.81033105  0.65532694  0.65350501     0.05600
C190        C  0.80250370  0.64367135  0.67089638     0.03700
H191        H  0.81795497  0.68564472  0.64782746     0.08800
H192        H  0.79776235  0.62834133  0.67301321     0.07700
N193        N  0.86138673  0.60902433  0.43875803    -0.26700
N194        N  0.85851793  0.59351078  0.42910558    -0.34600
C195        C  0.87288848  0.60087142  0.41473945     0.01600
C196        C  0.88551050  0.62208391  0.41535111     0.07600
C197        C  0.87777114  0.62675868  0.43075906    -0.05500
H198        H  0.87491178  0.59149848  0.40550090     0.08300
H199        H  0.88436630  0.64187333  0.43657794     0.09500
Cu200      Cu  0.83809970  0.56329715  0.43822463     0.44200
Cu201      Cu  0.84467141  0.60496080  0.46417049     0.42000
Cu202      Cu  0.81941650  0.55542438  0.48927047     0.43900
N203        N  0.82686969  0.53721334  0.45477276    -0.34100
N204        N  0.82046792  0.53437653  0.47360629    -0.28400
C205        C  0.81691637  0.51722794  0.48074680    -0.04500
C206        C  0.82114716  0.50889139  0.46559965     0.07700
C207        C  0.82757686  0.52204272  0.44944047     0.01500
H208        H  0.81272276  0.51189005  0.49613329     0.09200
H209        H  0.83366816  0.52140672  0.43532245     0.08300
N210        N  0.82189215  0.57996819  0.50150900    -0.35600
N211        N  0.83061159  0.59767959  0.49215134    -0.27700
C212        C  0.83017730  0.61036832  0.50427903    -0.03000
C213        C  0.82098138  0.60033555  0.52229352     0.05600
C214        C  0.81587856  0.58105095  0.51993951     0.03700
H215        H  0.83669833  0.62601197  0.50046117     0.08800
H216        H  0.80885944  0.56889290  0.53103128     0.07700
C217        C  0.86637422  0.39366065  0.46485693     0.80800
N218        N  0.88707707  0.40706317  0.46749437    -0.77500
C219        C  0.89675583  0.42705991  0.47209851     0.83200
N220        N  0.88551939  0.43382663  0.47382331    -0.77500
C221        C  0.86481630  0.42063638  0.47127032     0.83300
N222        N  0.85530479  0.40064304  0.46668884    -0.79200
C223        C  0.49689303  0.59776244  0.75543137     0.80800
N224        N  0.50647575  0.59035225  0.76261367    -0.77500
C225        C  0.49566288  0.57008797  0.76665874     0.83200
N226        N  0.47504736  0.55718841  0.76357086    -0.77500
C227        C  0.46527596  0.56443575  0.75634266     0.83300
N228        N  0.47629705  0.58477644  0.75218119    -0.79200
N229        N  0.71573763  0.80903228  0.76283566    -0.26700
N230        N  0.70503786  0.80027358  0.74612036    -0.34600
C231        C  0.71490366  0.79576363  0.73435462     0.01600
C232        C  0.73266603  0.80194815  0.74404261     0.07600
C233        C  0.73271520  0.81026396  0.76209695    -0.05500
H234        H  0.70872545  0.78703363  0.72052032     0.08300
H235        H  0.74348108  0.81543601  0.77438574     0.09500
Cu236      Cu  0.67554359  0.79046413  0.74119982     0.44200
Cu237      Cu  0.70529480  0.81597375  0.78708276     0.42000
Cu238      Cu  0.65056044  0.79085325  0.78458092     0.43900
N239        N  0.64392319  0.77188692  0.74399211    -0.34100
N240        N  0.63472678  0.77155180  0.76037083    -0.28400
C241        C  0.61454552  0.75579505  0.75915526    -0.04500
C242        C  0.61073802  0.74566174  0.74106867     0.07700
C243        C  0.62980623  0.75650095  0.73176946     0.01500
H244        H  0.60365785  0.75122322  0.77116709     0.09200
H245        H  0.63344584  0.75268224  0.71781973     0.08300
N246        N  0.66921620  0.80843920  0.80860816    -0.35600
N247        N  0.68910110  0.81752021  0.80972561    -0.27700
C248        C  0.69614795  0.82655730  0.82785146    -0.03000
C249        C  0.67987367  0.82292697  0.83858007     0.05600
C250        C  0.66309103  0.81146854  0.82590473     0.03700
H251        H  0.71177054  0.83456970  0.83306217     0.08800
H252        H  0.64741770  0.80523865  0.82924292     0.07700
N253        N  0.70620437  0.92867560  0.04446940    -0.26700
N254        N  0.69586812  0.92981757  0.05875723    -0.34600
C255        C  0.70805637  0.94861617  0.06705804     0.01600
C256        C  0.72696993  0.95991854  0.05746979     0.07600
C257        C  0.72523920  0.94674835  0.04324217    -0.05500
H258        H  0.70306096  0.95414437  0.07825736     0.08300
H259        H  0.73648065  0.95046466  0.03194555     0.09500
Cu260      Cu  0.66468619  0.90717780  0.06385617     0.44200
Cu261      Cu  0.69281155  0.90363163  0.02555379     0.42000
Cu262      Cu  0.63683022  0.86692059  0.02600435     0.43900
N263        N  0.63292159  0.88758069  0.06092954    -0.34100
N264        N  0.62277166  0.87326103  0.04691618    -0.28400
C265        C  0.60278256  0.86504384  0.04777127    -0.04500
C266        C  0.60018132  0.87461831  0.06305882     0.07700
C267        C  0.61965254  0.88872769  0.07113245     0.01500
H268        H  0.59116057  0.85362773  0.03737317     0.09200
H269        H  0.62407064  0.89977907  0.08290538     0.08300
N270        N  0.65528135  0.86627959  0.00535253    -0.35600
N271        N  0.67559368  0.87961854  0.00542095    -0.27700
C272        C  0.68295254  0.87589597  0.98963209    -0.03000
C273        C  0.66655804  0.85943198  0.97904086     0.05600
C274        C  0.64920411  0.85368766  0.98942855     0.03700
H275        H  0.69906282  0.88506321  0.98568003     0.08800
H276        H  0.63333770  0.84166336  0.98538329     0.07700
N277        N  0.88805826  0.22703624  0.37382101    -0.26700
N278        N  0.88525031  0.23345311  0.39067210    -0.34600
C279        C  0.89820688  0.23582277  0.40474676     0.01600
C280        C  0.90979968  0.23068778  0.39643290     0.07600
C281        C  0.90287079  0.22510763  0.37676416    -0.05500
H282        H  0.90000018  0.24211249  0.41958862     0.08300
H283        H  0.90890248  0.22103811  0.36513142     0.09500
Cu284      Cu  0.86614717  0.24153514  0.39320523     0.44200
Cu285      Cu  0.87359638  0.22397159  0.34703927     0.42000
Cu286      Cu  0.84442884  0.24347607  0.34706549     0.43900
N287        N  0.85115916  0.25425555  0.39102632    -0.34100
N288        N  0.84340889  0.25515785  0.37405722    -0.28400
C289        C  0.83660710  0.26605596  0.37714178    -0.04500
C290        C  0.84015231  0.27220684  0.39704841     0.07700
C291        C  0.84941471  0.26449281  0.40540057     0.01500
H292        H  0.83040587  0.27000074  0.36553989     0.09200
H293        H  0.85549348  0.26712521  0.42050198     0.08300
N294        N  0.85039636  0.23373237  0.32156066    -0.35600
N295        N  0.86096788  0.22664378  0.32157789    -0.27700
C296        C  0.86288268  0.22258279  0.30255588    -0.03000
C297        C  0.85307579  0.22736735  0.28999218     0.05600
C298        C  0.84528964  0.23435464  0.30252439     0.03700
H299        H  0.87116675  0.21695577  0.29815670     0.08800
H300        H  0.83702042  0.24000045  0.29810806     0.07700
N301        N  0.82079597  0.14111292  0.07295654    -0.26700
N302        N  0.80630328  0.13385372  0.05916136    -0.34600
C303        C  0.80081959  0.11578177  0.05247466     0.01600
C304        C  0.81230461  0.11140049  0.06259763     0.07600
C305        C  0.82477418  0.12778231  0.07551409    -0.05500
H306        H  0.78821749  0.10574820  0.04220778     0.08300
H307        H  0.83494268  0.12922386  0.08691395     0.09500
Cu308      Cu  0.79164576  0.14648994  0.05282443     0.44200
Cu309      Cu  0.83188966  0.16669015  0.09035953     0.42000
Cu310      Cu  0.80021287  0.18285871  0.09012383     0.43900
N311        N  0.77385190  0.15622159  0.05522753    -0.34100
N312        N  0.77697457  0.16937679  0.06901608    -0.28400
C313        C  0.76167440  0.17077821  0.06817006    -0.04500
C314        C  0.74827235  0.15793027  0.05308314     0.07700
C315        C  0.75644384  0.14893582  0.04518414     0.01500
H316        H  0.75988191  0.17967850  0.07846494     0.09200
H317        H  0.74956485  0.13703123  0.03383185     0.08300
N318        N  0.82142174  0.19079278  0.11230855    -0.35600
N319        N  0.83346153  0.18540857  0.11209298    -0.27700
C320        C  0.84446507  0.19183324  0.12916231    -0.03000
C321        C  0.83890536  0.20147342  0.14089162     0.05600
C322        C  0.82426201  0.20053808  0.12964501     0.03700
H323        H  0.85507864  0.18868247  0.13320859     0.08800
H324        H  0.81553819  0.20568899  0.13414783     0.07700
C325        C  0.84725484  0.20057317  0.19718448    -0.04900
C326        C  0.85038511  0.21851622  0.20353862     0.09200
C327        C  0.85149468  0.23174735  0.18928999    -0.02300
C328        C  0.84861461  0.22660487  0.16869178    -0.00600
C329        C  0.84426856  0.20797864  0.16229635    -0.04200
C330        C  0.84384714  0.19507710  0.17670135     0.02900
C331        C  0.85129558  0.22267939  0.22546884     0.09700
C332        C  0.85538978  0.25053727  0.19592596     0.35600
C333        C  0.83867971  0.17550566  0.17089759     0.39000
C334        C  0.87034552  0.23475093  0.23552122    -0.04500
C335        C  0.87096027  0.23668189  0.25661380     0.02600
C336        C  0.85246893  0.22659481  0.26770728    -0.04100
C337        C  0.83343725  0.21535807  0.25745596    -0.00400
C338        C  0.83287083  0.21329054  0.23637780    -0.02900
C339        C  0.88926443  0.24490252  0.22412575     0.36300
C340        C  0.81435830  0.20521422  0.26858177     0.39900
C341        C  0.89066892  0.24934240  0.26683145     0.39100
C342        C  0.81330170  0.20101977  0.22587272     0.36000
C343        C  0.84718155  0.18757264  0.21191724     0.36700
C344        C  0.85027592  0.24061232  0.15411662     0.39900
N345        N  0.90638298  0.25943698  0.27499519    -0.38100
N346        N  0.90434556  0.25304088  0.21500276    -0.39700
N347        N  0.79910010  0.19714499  0.27738292    -0.37500
N348        N  0.79774302  0.19119949  0.21741932    -0.39900
N349        N  0.85854699  0.26554385  0.20125356    -0.39600
N350        N  0.85157381  0.25178909  0.14251388    -0.37300
N351        N  0.83454233  0.15984132  0.16646688    -0.38300
N352        N  0.84724330  0.17732971  0.22371502    -0.40000
C353        C  0.79917814  0.06095979  0.04561163    -0.04900
C354        C  0.78842975  0.04854693  0.06258465     0.09200
C355        C  0.78910653  0.05769435  0.08077107    -0.02300
C356        C  0.79825690  0.07875901  0.08129192    -0.00600
C357        C  0.80716429  0.09080655  0.06364395    -0.04200
C358        C  0.80862857  0.08210982  0.04617652     0.02900
C359        C  0.77321726  0.02576683  0.06034379     0.09700
C360        C  0.77931700  0.04508929  0.09862157     0.35600
C361        C  0.81951209  0.09489239  0.02868255     0.39000
C362        C  0.77888981  0.01302623  0.06322969    -0.04500
C363        C  0.76384508  0.99144041  0.06209076     0.02600
C364        C  0.74307651  0.98258962  0.05816612    -0.04100
C365        C  0.73765787  0.99550857  0.05453255    -0.00400
C366        C  0.75264690  0.01696793  0.05572050    -0.02900
C367        C  0.80015057  0.02218152  0.06746798     0.36300
C368        C  0.71678217  0.98683387  0.04887171     0.39900
C369        C  0.76966258  0.97835903  0.06536382     0.39100
C370        C  0.74692876  0.03012833  0.05215434     0.36000
C371        C  0.79962740  0.05172876  0.02732302     0.36700
C372        C  0.79703286  0.08753052  0.09955720     0.39900
N373        N  0.77433287  0.96793342  0.06794320    -0.38100
N374        N  0.81715206  0.02954481  0.07078971    -0.39700
N375        N  0.70015767  0.97994855  0.04431659    -0.37500
N376        N  0.74245690  0.04068474  0.04932113    -0.39900
N377        N  0.77156795  0.03500250  0.11285056    -0.39600
N378        N  0.79599120  0.09446304  0.11414501    -0.37300
N379        N  0.82834431  0.10517337  0.01480075    -0.38300
N380        N  0.80002872  0.04433632  0.01276110    -0.40000
C381        C  0.69125656  0.85321977  0.88663754    -0.04900
C382        C  0.67687687  0.83738139  0.89998291     0.09200
C383        C  0.66451500  0.81676520  0.89358261    -0.02300
C384        C  0.66579459  0.81202060  0.87360380    -0.00600
C385        C  0.67965698  0.82790782  0.85995533    -0.04200
C386        C  0.69278401  0.84848962  0.86668619     0.02900
C387        C  0.67382211  0.84244271  0.92046666     0.09700
C388        C  0.65029487  0.80045616  0.90756551     0.35600
C389        C  0.70730073  0.86488382  0.85292014     0.39000
C390        C  0.66059700  0.84757937  0.92299816    -0.04500
C391        C  0.65736073  0.85213481  0.94229660     0.02600
C392        C  0.66780187  0.85209307  0.95914374    -0.04100
C393        C  0.68081768  0.84662118  0.95657006    -0.00400
C394        C  0.68369198  0.84167096  0.93729128    -0.02900
C395        C  0.65061951  0.84852976  0.90558191     0.36300
C396        C  0.69099714  0.84572379  0.97381372     0.39900
C397        C  0.64381276  0.85753404  0.94456297     0.39100
C398        C  0.69687425  0.83586856  0.93467622     0.36000
C399        C  0.70413346  0.87440638  0.89337749     0.36700
C400        C  0.65299476  0.79071330  0.86721324     0.39900
N401        N  0.63288396  0.86170441  0.94628871    -0.38100
N402        N  0.64282207  0.84940191  0.89162145    -0.39700
N403        N  0.69912672  0.84500567  0.98755951    -0.37500
N404        N  0.70732758  0.83116754  0.93255074    -0.39900
N405        N  0.63903693  0.78746485  0.91877053    -0.39600
N406        N  0.64275658  0.77372908  0.86208863    -0.37300
N407        N  0.71892554  0.87797408  0.84196618    -0.38300
N408        N  0.71434797  0.89130274  0.89877337    -0.40000
C409        C  0.57426398  0.68810219  0.73115084    -0.04900
C410        C  0.55531603  0.68353140  0.73619298     0.09200
C411        C  0.55408669  0.69953361  0.73922186    -0.02300
C412        C  0.57216436  0.72011095  0.73923765    -0.00600
C413        C  0.59157004  0.72473285  0.73618545    -0.04200
C414        C  0.59238052  0.70861537  0.73109767     0.02900
C415        C  0.53766960  0.66199497  0.74155040     0.09700
C416        C  0.53428563  0.69467062  0.74319047     0.35600
C417        C  0.61181604  0.71261127  0.72731725     0.39000
C418        C  0.53611528  0.65527457  0.76147978    -0.04500
C419        C  0.52198477  0.63428781  0.76621330     0.02600
C420        C  0.50919937  0.61992662  0.75105614    -0.04100
C421        C  0.50979390  0.62680718  0.73139059    -0.00400
C422        C  0.52415478  0.64786321  0.72662113    -0.02900
C423        C  0.54979424  0.66992450  0.77691965     0.36300
C424        C  0.49659619  0.61213338  0.71578275     0.39900
C425        C  0.52087737  0.62742293  0.78664492     0.39100
C426        C  0.52572799  0.65491416  0.70621387     0.36000
C427        C  0.57522480  0.67145377  0.72736510     0.36700
C428        C  0.57079133  0.73647282  0.74290782     0.39900
N429        N  0.52002650  0.62190214  0.80289801    -0.38100
N430        N  0.56075269  0.68164921  0.78917186    -0.39700
N431        N  0.48604823  0.60039071  0.70335935    -0.37500
N432        N  0.52702813  0.66054538  0.68991291    -0.39900
N433        N  0.51844312  0.69072128  0.74629016    -0.39600
N434        N  0.56965890  0.74949364  0.74590577    -0.37300
N435        N  0.62717379  0.71551171  0.72419767    -0.38300
N436        N  0.57588554  0.65811324  0.72442930    -0.40000
C437        C  0.85938508  0.34456673  0.45415932    -0.04900
C438        C  0.84424503  0.33553906  0.43902263     0.09200
C439        C  0.83402768  0.34373993  0.43452608    -0.02300
C440        C  0.84015391  0.36203597  0.44390065    -0.00600
C441        C  0.85664826  0.37222798  0.45797186    -0.04200
C442        C  0.86530470  0.36257841  0.46388117     0.02900
C443        C  0.84058528  0.31853081  0.42666940     0.09700
C444        C  0.81767677  0.33365974  0.41966577     0.35600
C445        C  0.88032464  0.37102914  0.48001983     0.39000
C446        C  0.82758248  0.29812386  0.43376016    -0.04500
C447        C  0.82693094  0.28275425  0.42370554     0.02600
C448        C  0.83901139  0.28771689  0.40632311    -0.04100
C449        C  0.85114069  0.30795877  0.39860877    -0.00400
C450        C  0.85190108  0.32330848  0.40877607    -0.02900
C451        C  0.81516744  0.29310579  0.45157124     0.36300
C452        C  0.86384514  0.31335576  0.38091715     0.39900
C453        C  0.81396344  0.26186835  0.43131427     0.39100
C454        C  0.86493026  0.34425557  0.40126574     0.36000
C455        C  0.86950457  0.33571832  0.45910583     0.36700
C456        C  0.82987405  0.37052853  0.43823062     0.39900
N457        N  0.80363088  0.24519754  0.43737929    -0.38100
N458        N  0.80519833  0.28913265  0.46573434    -0.39700
N459        N  0.87402252  0.31769327  0.36683901    -0.37500
N460        N  0.87527867  0.36096941  0.39531474    -0.39900
N461        N  0.80462363  0.32558818  0.40782579    -0.39600
N462        N  0.82144023  0.37706019  0.43368801    -0.37300
N463        N  0.89230907  0.37770338  0.49286939    -0.38300
N464        N  0.87756420  0.32863633  0.46292692    -0.40000
C465        C  0.84809147  0.48545405  0.47299610    -0.04900
C466        C  0.83169051  0.46434846  0.47046178     0.09200
C467        C  0.81159885  0.45774676  0.46708532    -0.02300
C468        C  0.80801357  0.47230039  0.46579549    -0.00600
C469        C  0.82449657  0.49341960  0.46798505    -0.04200
C470        C  0.84451618  0.49995033  0.47175780     0.02900
C471        C  0.83615897  0.44945020  0.47059392     0.09700
C472        C  0.79472638  0.43603435  0.46484161     0.35600
C473        C  0.86150355  0.52163958  0.47421981     0.39000
C474        C  0.83902235  0.44308584  0.48904858    -0.04500
C475        C  0.84777702  0.43294530  0.48930567     0.02600
C476        C  0.85319773  0.42872557  0.47107722    -0.04100
C477        C  0.84899526  0.43380119  0.45255606    -0.00400
C478        C  0.84047912  0.44415804  0.45231828    -0.02900
C479        C  0.83352136  0.44758023  0.50774697     0.36300
C480        C  0.85454514  0.42942335  0.43378661     0.39900
C481        C  0.85184803  0.42745282  0.50830362     0.39100
C482        C  0.83699355  0.45019860  0.43332035     0.36000
C483        C  0.86874163  0.49223511  0.47662466     0.36700
C484        C  0.78749813  0.46564930  0.46177775     0.39900
N485        N  0.85516603  0.42311120  0.52345204    -0.38100
N486        N  0.82902328  0.45111680  0.52263263    -0.39700
N487        N  0.85904781  0.42597455  0.41884343    -0.37500
N488        N  0.83415885  0.45499470  0.41818027    -0.39900
N489        N  0.78125603  0.41869088  0.46308287    -0.39600
N490        N  0.77115142  0.46040263  0.45852240    -0.37300
N491        N  0.87506415  0.53893160  0.47616399    -0.38300
N492        N  0.88515093  0.49751680  0.47955594    -0.40000
C493        C  0.77467443  0.76226292  0.70539532    -0.04900
C494        C  0.77726950  0.77127864  0.72431653     0.09200
C495        C  0.78699480  0.76885871  0.74007602    -0.02300
C496        C  0.79243131  0.75592627  0.73751802    -0.00600
C497        C  0.78820734  0.74540898  0.71912559    -0.04200
C498        C  0.78000088  0.74920904  0.70279671     0.02900
C499        C  0.76612550  0.77963524  0.72892069     0.09700
C500        C  0.79018863  0.77867647  0.75934056     0.35600
C501        C  0.77518226  0.73825536  0.68395112     0.39000
C502        C  0.74515970  0.76577351  0.73423463    -0.04500
C503        C  0.73444225  0.77317197  0.73970407     0.02600
C504        C  0.74450008  0.79450153  0.73940025    -0.04100
C505        C  0.76556333  0.80841480  0.73437935    -0.00400
C506        C  0.77637681  0.80096367  0.72907817    -0.02900
C507        C  0.73464854  0.74380857  0.73418140     0.36300
C508        C  0.77602343  0.83032500  0.73457543     0.39900
C509        C  0.71324520  0.75881098  0.74639743     0.39100
C510        C  0.79795109  0.81511759  0.72370220     0.36000
C511        C  0.76522596  0.76537296  0.68905632     0.36700
C512        C  0.80161643  0.75280569  0.75413481     0.39900
N513        N  0.69639556  0.74734912  0.75185358    -0.38100
N514        N  0.72633964  0.72632424  0.73401170    -0.39700
N515        N  0.78437710  0.84781745  0.73480150    -0.37500
N516        N  0.81517615  0.82638624  0.71939472    -0.39900
N517        N  0.79270835  0.78653418  0.77468013    -0.39600
N518        N  0.80880114  0.75020434  0.76743770    -0.37300
N519        N  0.77118493  0.72943761  0.66894206    -0.38300
N520        N  0.75765601  0.76785716  0.67606296    -0.40000
C521        C  0.82419348  0.63244346  0.61412206    -0.04900
C522        C  0.81524544  0.63355924  0.59664383     0.09200
C523        C  0.80527898  0.64247104  0.59762392    -0.02300
C524        C  0.80362407  0.64961437  0.61616026    -0.00600
C525        C  0.81273908  0.64867523  0.63371203    -0.04200
C526        C  0.82332305  0.64035134  0.63249709     0.02900
C527        C  0.81638962  0.62533606  0.57714573     0.09700
C528        C  0.79665102  0.64418223  0.57949730     0.35600
C529        C  0.83378671  0.64036055  0.65003432     0.39000
C530        C  0.79934883  0.60586071  0.57023556    -0.04500
C531        C  0.80064316  0.59788370  0.55208809     0.02600
C532        C  0.81922995  0.60913983  0.54097344    -0.04100
C533        C  0.83628528  0.62872947  0.54802340    -0.00400
C534        C  0.83467692  0.63691455  0.56579928    -0.02900
C535        C  0.78048277  0.59404571  0.58189753     0.36300
C536        C  0.85588423  0.64021554  0.53762831     0.39900
C537        C  0.78260277  0.57834182  0.54465188     0.39100
C538        C  0.85185079  0.65735270  0.57247143     0.36000
C539        C  0.83407033  0.62287865  0.61321514     0.36700
C540        C  0.79163424  0.65693092  0.61722322     0.39900
N541        N  0.76813859  0.56277089  0.53876686    -0.38100
N542        N  0.76546711  0.58470843  0.59124684    -0.39700
N543        N  0.87157435  0.64943343  0.52942869    -0.37500
N544        N  0.86547129  0.67368769  0.57777717    -0.39900
N545        N  0.78983752  0.64558020  0.56500193    -0.39600
N546        N  0.78196058  0.66264917  0.61801964    -0.37300
N547        N  0.84220351  0.64046008  0.66400620    -0.38300
N548        N  0.84186769  0.61516713  0.61250238    -0.40000
C549        C  0.41245665  0.51690742  0.74046346    -0.04900
C550        C  0.39973056  0.52167936  0.74728859     0.09200
C551        C  0.40850028  0.54076218  0.75650466    -0.02300
C552        C  0.42995423  0.55485317  0.75945440    -0.00600
C553        C  0.44276541  0.55005985  0.75271494    -0.04200
C554        C  0.43391024  0.53118053  0.74279601     0.02900
C555        C  0.37702179  0.50624280  0.74471954     0.09700
C556        C  0.39537950  0.54580015  0.76297682     0.35600
C557        C  0.44685164  0.52664399  0.73430627     0.39000
C558        C  0.36475644  0.49316959  0.76080110    -0.04500
C559        C  0.34419909  0.47589748  0.75730953     0.02600
C560        C  0.33606444  0.47116676  0.73753444    -0.04100
C561        C  0.34795473  0.48533168  0.72177094    -0.00400
C562        C  0.36826469  0.50299201  0.72551890    -0.02900
C563        C  0.37368415  0.49685997  0.78068981     0.36300
C564        C  0.34022503  0.48112705  0.70130871     0.39900
C565        C  0.33160558  0.46269413  0.77403946     0.39100
C566        C  0.38067644  0.51729109  0.70933908     0.36000
C567        C  0.40337453  0.49713747  0.73115448     0.36700
C568        C  0.43866690  0.57393590  0.77002630     0.39900
N569        N  0.32160069  0.45218604  0.78740667    -0.38100
N570        N  0.38087085  0.49982122  0.79652058    -0.39700
N571        N  0.33426387  0.47792369  0.68490208    -0.37500
N572        N  0.39061780  0.52871730  0.69647331    -0.39900
N573        N  0.38487833  0.54979595  0.76809875    -0.39600
N574        N  0.44561397  0.58915572  0.77846840    -0.37300
N575        N  0.45715762  0.52305855  0.72744310    -0.38300
N576        N  0.39606690  0.48135377  0.72376878    -0.40000
C577        C  0.99039473  0.28212308  0.44987753    -0.04900
C578        C  0.98553702  0.26535288  0.43833860     0.09200
C579        C  0.00043258  0.26238464  0.43557802    -0.02300
C580        C  0.02071210  0.27727055  0.44255343    -0.00600
C581        C  0.02604926  0.29511228  0.45227798    -0.04200
C582        C  0.01059475  0.29693858  0.45688586     0.02900
C583        C  0.96599408  0.25303623  0.42651895     0.09700
C584        C  0.99509133  0.24456861  0.42460119     0.35600
C585        C  0.01558260  0.31431361  0.46851489     0.39000
C586        C  0.96647358  0.25796565  0.40607411    -0.04500
C587        C  0.94801400  0.24933588  0.39554006     0.02600
C588        C  0.92888722  0.23575899  0.40549121    -0.04100
C589        C  0.92846417  0.22946462  0.42541238    -0.00400
C590        C  0.94697788  0.23824088  0.43597362    -0.02900
C591        C  0.98607772  0.27304191  0.39625853     0.36300
C592        C  0.90892380  0.21403357  0.43508223     0.39900
C593        C  0.94898954  0.25565215  0.37491360     0.39100
C594        C  0.94649529  0.23282356  0.45684287     0.36000
C595        C  0.97486617  0.28473368  0.45358113     0.36700
C596        C  0.03633264  0.27487490  0.43856716     0.39900
N597        N  0.94996272  0.26075255  0.35844183    -0.38100
N598        N  0.00174592  0.28508783  0.38853573    -0.39700
N599        N  0.89331523  0.20162538  0.44271539    -0.37500
N600        N  0.94609351  0.22861227  0.47354625    -0.39900
N601        N  0.99079184  0.23035566  0.41579210    -0.39600
N602        N  0.04880456  0.27296366  0.43539659    -0.37300
N603        N  0.01957452  0.32816371  0.47780355    -0.38300
N604        N  0.96244872  0.28675836  0.45657589    -0.40000
C605        C  0.18774143  0.35499540  0.60676675    -0.04900
C606        C  0.19867561  0.37088766  0.59240491     0.09200
C607        C  0.22002882  0.38636654  0.59453200    -0.02300
C608        C  0.23030701  0.38651235  0.61149797    -0.00600
C609        C  0.21920782  0.37118940  0.62647232    -0.04200
C610        C  0.19797296  0.35511961  0.62379728     0.02900
C611        C  0.18752008  0.37189445  0.57547926     0.09700
C612        C  0.23132927  0.40227128  0.57932633     0.35600
C613        C  0.18642217  0.33921725  0.63895474     0.39000
C614        C  0.17942555  0.38252795  0.57804572    -0.04500
C615        C  0.16883997  0.38355315  0.56214146     0.02600
C616        C  0.16642645  0.37402270  0.54352831    -0.04100
C617        C  0.17468974  0.36349178  0.54097626    -0.00400
C618        C  0.18517634  0.36240454  0.55695531    -0.02900
C619        C  0.18192523  0.39230189  0.59716283     0.36300
C620        C  0.17291482  0.35424630  0.52174145     0.39900
C621        C  0.15981382  0.39378086  0.56524640     0.39100
C622        C  0.19362586  0.35157233  0.55439980     0.36000
C623        C  0.16586505  0.33876718  0.60415012     0.36700
C624        C  0.25237762  0.40227686  0.61335380     0.39900
N625        N  0.15260064  0.40191771  0.56778262    -0.38100
N626        N  0.18395733  0.40007625  0.61243049    -0.39700
N627        N  0.17152612  0.34690213  0.50638374    -0.37500
N628        N  0.20038158  0.34293681  0.55241487    -0.39900
N629        N  0.24030624  0.41491481  0.56715470    -0.39600
N630        N  0.26998551  0.41482988  0.61480741    -0.37300
N631        N  0.17718300  0.32650774  0.65102643    -0.38300
N632        N  0.14842040  0.32583124  0.60199074    -0.40000
C633        C  0.65440625  0.13277025  0.03994941    -0.04900
C634        C  0.66420771  0.12395138  0.03637009     0.09200
C635        C  0.65272322  0.10358826  0.02936230    -0.02300
C636        C  0.63140034  0.09186761  0.02630753    -0.00600
C637        C  0.62131432  0.10040400  0.03041192    -0.04200
C638        C  0.63298006  0.12101926  0.03706436     0.02900
C639        C  0.68640000  0.13538302  0.04126646     0.09700
C640        C  0.66289893  0.09457805  0.02566940     0.35600
C641        C  0.62291332  0.12989697  0.04194359     0.39000
C642        C  0.69204840  0.13396584  0.06081950    -0.04500
C643        C  0.71245268  0.14192309  0.06488484     0.02600
C644        C  0.72733658  0.15139286  0.04935458    -0.04100
C645        C  0.72181599  0.15350185  0.02998207    -0.00400
C646        C  0.70138075  0.14555771  0.02596503    -0.02900
C647        C  0.67656993  0.12348175  0.07652216     0.36300
C648        C  0.73716125  0.16377448  0.01417307     0.39900
C649        C  0.71773635  0.13920506  0.08475677     0.39100
C650        C  0.69556988  0.14732267  0.00597727     0.36000
C651        C  0.66637409  0.15381451  0.04697191     0.36700
C652        C  0.61999414  0.07105582  0.01872206     0.39900
N653        N  0.72187735  0.13696091  0.10060969    -0.38100
N654        N  0.66415813  0.11507623  0.08897294    -0.39700
N655        N  0.74943618  0.17198896  0.00158470    -0.37500
N656        N  0.69089599  0.14871264  0.99003564    -0.39900
N657        N  0.67108049  0.08746444  0.02276965    -0.39600
N658        N  0.61106385  0.05445662  0.01274152    -0.37300
N659        N  0.61503133  0.13711410  0.04594612    -0.38300
N660        N  0.67594754  0.17061464  0.05255996    -0.40000
C661        C  0.96860159  0.67152066  0.35738616    -0.04900
C662        C  0.96500855  0.67657400  0.37623888     0.09200
C663        C  0.98160084  0.69325401  0.38728540    -0.02300
C664        C  0.00190149  0.70348285  0.38051733    -0.00600
C665        C  0.00565378  0.69713161  0.36260878    -0.04200
C666        C  0.98892674  0.68178536  0.35054356     0.02900
C667        C  0.94433988  0.66254669  0.38588736     0.09700
C668        C  0.97775622  0.69918124  0.40611633     0.35600
C669        C  0.99258482  0.67541201  0.33190985     0.39000
C670        C  0.94003992  0.64652685  0.39836585    -0.04500
C671        C  0.92100688  0.63363097  0.40833968     0.02600
C672        C  0.90586809  0.63630425  0.40545192    -0.04100
C673        C  0.91025213  0.65245458  0.39307549    -0.00400
C674        C  0.92947324  0.66554745  0.38328850    -0.02900
C675        C  0.95532677  0.64338146  0.40097044     0.36300
C676        C  0.89490235  0.65543251  0.39021807     0.39900
C677        C  0.91743236  0.61821863  0.42228788     0.39100
C678        C  0.93401181  0.68207224  0.37050079     0.36000
C679        C  0.95139284  0.65502532  0.34558866     0.36700
C680        C  0.01900439  0.72011644  0.39232243     0.39900
N681        N  0.91465809  0.60603231  0.43350323    -0.38100
N682        N  0.96751824  0.64087624  0.40296299    -0.39700
N683        N  0.88264845  0.65781743  0.38798124    -0.37500
N684        N  0.93769150  0.69527034  0.36025504    -0.39900
N685        N  0.97461909  0.70388590  0.42111475    -0.39600
N686        N  0.03266167  0.73339192  0.40172090    -0.37300
N687        N  0.99550524  0.67030626  0.31705539    -0.38300
N688        N  0.93763721  0.64189358  0.33616817    -0.40000
C689        C  0.13454223  0.74890382  0.22354241    -0.04900
C690        C  0.15616469  0.76340225  0.22311118     0.09200
C691        C  0.16733659  0.77079620  0.24129422    -0.02300
C692        C  0.15695911  0.76330713  0.25987650    -0.00600
C693        C  0.13528699  0.74848984  0.26037500    -0.04200
C694        C  0.12410051  0.74147466  0.24210079     0.02900
C695        C  0.16728645  0.77020494  0.20344541     0.09700
C696        C  0.18956194  0.78604237  0.24082517     0.35600
C697        C  0.10191266  0.72596520  0.24226061     0.39000
C698        C  0.17450774  0.78920447  0.19497371    -0.04500
C699        C  0.18566375  0.79588755  0.17676101     0.02600
C700        C  0.18976652  0.78359223  0.16699760    -0.04100
C701        C  0.18190007  0.76423582  0.17525829    -0.00400
C702        C  0.17072660  0.75760815  0.19340723    -0.02900
C703        C  0.17057075  0.80192636  0.20516377     0.36300
C704        C  0.18481110  0.75080822  0.16487845     0.39900
C705        C  0.19343484  0.81571915  0.16853347     0.39100
C706        C  0.16275265  0.73777852  0.20183958     0.36000
C707        C  0.12311275  0.74142905  0.20479168     0.36700
C708        C  0.16862034  0.77115572  0.27847842     0.39900
N709        N  0.19951521  0.83151249  0.16198354    -0.38100
N710        N  0.16743929  0.81205852  0.21334765    -0.39700
N711        N  0.18714043  0.74009305  0.15663395    -0.37500
N712        N  0.15628800  0.72192392  0.20852774    -0.39900
N713        N  0.20727856  0.79827862  0.24042219    -0.39600
N714        N  0.17793769  0.77739635  0.29330897    -0.37300
N715        N  0.08420872  0.71359164  0.24231872    -0.38300
N716        N  0.11408941  0.73547504  0.18978515    -0.40000
C717        C  0.29072474  0.28313927  0.79088602    -0.04900
C718        C  0.29060934  0.28081253  0.76983629     0.09200
C719        C  0.29760717  0.27046097  0.76159479    -0.02300
C720        C  0.30577282  0.26345756  0.77427848    -0.00600
C721        C  0.30697571  0.26684567  0.79526970    -0.04200
C722        C  0.29892072  0.27620968  0.80356338     0.02900
C723        C  0.28520897  0.29127855  0.75639819     0.09700
C724        C  0.29732567  0.26797052  0.73995805     0.35600
C725        C  0.29960398  0.27923979  0.82515410     0.39000
C726        C  0.30109084  0.31035585  0.74767721    -0.04500
C727        C  0.29635140  0.32161340  0.73704273     0.02600
C728        C  0.27577100  0.31425955  0.73573689    -0.04100
C729        C  0.25977061  0.29460479  0.74338881    -0.00400
C730        C  0.26450943  0.28306712  0.75361112    -0.02900
C731        C  0.32241592  0.31888236  0.75048560     0.36300
C732        C  0.23857257  0.28674140  0.74176148     0.39900
C733        C  0.31272261  0.34088881  0.72751179     0.39100
C734        C  0.24821456  0.26310338  0.76197425     0.36000
C735        C  0.28330565  0.29357264  0.79941311     0.36700
C736        C  0.31429224  0.25416428  0.76552683     0.39900
N737        N  0.32572516  0.35622370  0.71984075    -0.38100
N738        N  0.33942368  0.32572505  0.75277786    -0.39700
N739        N  0.22163352  0.28042271  0.74049380    -0.37500
N740        N  0.23528507  0.24717778  0.76872038    -0.39900
N741        N  0.29720217  0.26612399  0.72268239    -0.39600
N742        N  0.32112982  0.24680162  0.75850922    -0.37300
N743        N  0.30020540  0.28169836  0.84236591    -0.38300
N744        N  0.27735083  0.30187055  0.80617636    -0.40000
C745        C  0.53786142  0.08207172  0.97396346    -0.04900
C746        C  0.53158172  0.09251864  0.98364475     0.09200
C747        C  0.54090924  0.10288101  0.00196092    -0.02300
C748        C  0.55448025  0.10060621  0.01179436    -0.00600
C749        C  0.55938751  0.08871070  0.00286460    -0.04200
C750        C  0.55197332  0.08041419  0.98347291     0.02900
C751        C  0.51265979  0.08929975  0.97653320     0.09700
C752        C  0.53540676  0.11469210  0.01127580     0.35600
C753        C  0.55810014  0.06927800  0.97378513     0.39000
C754        C  0.49403002  0.07527246  0.98697155    -0.04500
C755        C  0.47562148  0.07058797  0.97967737     0.02600
C756        C  0.47546758  0.07915505  0.96129789    -0.04100
C757        C  0.49423221  0.09352241  0.95104129    -0.00400
C758        C  0.51283042  0.09885719  0.95887668    -0.02900
C759        C  0.49372327  0.06523349  0.00507274     0.36300
C760        C  0.49436493  0.10209079  0.93194193     0.39900
C761        C  0.45696658  0.05725325  0.99147500     0.39100
C762        C  0.53213492  0.11397296  0.94869255     0.36000
C763        C  0.52866858  0.07175984  0.95492724     0.36700
C764        C  0.56198419  0.10902102  0.03179503     0.39900
N765        N  0.44214288  0.04661808  0.00094363    -0.38100
N766        N  0.49354629  0.05728233  0.01949470    -0.39700
N767        N  0.49449878  0.10887630  0.91665111    -0.37500
N768        N  0.54755917  0.12607143  0.94060906    -0.39900
N769        N  0.53097762  0.12408918  0.01869528    -0.39600
N770        N  0.56775471  0.11557117  0.04784276    -0.37300
N771        N  0.56306307  0.06046618  0.96605318    -0.38300
N772        N  0.52129325  0.06354005  0.93974958    -0.40000
C773        C  0.28341668  0.94383332  0.99133803    -0.04900
C774        C  0.28252635  0.92646157  0.98843365     0.09200
C775        C  0.29476893  0.92674185  0.97346472    -0.02300
C776        C  0.30856195  0.94464606  0.96209086    -0.00600
C777        C  0.31090025  0.96271891  0.96622700    -0.04200
C778        C  0.29783135  0.96207931  0.98055723     0.02900
C779        C  0.27070260  0.90872471  0.00262699     0.09700
C780        C  0.29389189  0.90887029  0.97045213     0.35600
C781        C  0.30003808  0.98042382  0.98535352     0.39000
C782        C  0.25277809  0.88956094  0.99615614    -0.04500
C783        C  0.24407877  0.87196345  0.00822819     0.02600
C784        C  0.25304603  0.87362716  0.02692535    -0.04100
C785        C  0.27011963  0.89303175  0.03400134    -0.00400
C786        C  0.27898499  0.91054391  0.02184063    -0.02900
C787        C  0.24385557  0.88787818  0.97673372     0.36300
C788        C  0.27921458  0.89481278  0.05337605     0.39900
C789        C  0.22652449  0.85199645  0.00104364     0.39100
C790        C  0.29731688  0.93026834  0.02862631     0.36000
C791        C  0.27004950  0.94311828  0.00605844     0.36700
C792        C  0.32037987  0.94440717  0.94613998     0.39900
N793        N  0.21257029  0.83602274  0.99531662    -0.38100
N794        N  0.23678126  0.88655569  0.96120707    -0.39700
N795        N  0.28652167  0.89624872  0.06879146    -0.37500
N796        N  0.31191571  0.94603108  0.03397589    -0.39900
N797        N  0.29317463  0.89460338  0.96814058    -0.39600
N798        N  0.32975245  0.94416398  0.93340136    -0.37300
N799        N  0.30174531  0.99501064  0.98930118    -0.38300
N800        N  0.25938700  0.94254298  0.01780101    -0.40000
C801        C  0.38213605  0.14760403  0.90278990    -0.04900
C802        C  0.36951735  0.14143885  0.88563465     0.09200
C803        C  0.35922598  0.12152872  0.87772769    -0.02300
C804        C  0.36180452  0.10788738  0.88672603    -0.00600
C805        C  0.37456133  0.11406064  0.90386550    -0.04200
C806        C  0.38449913  0.13389055  0.91201319     0.02900
C807        C  0.36729020  0.15608485  0.87571789     0.09700
C808        C  0.34609906  0.11517330  0.86018848     0.35600
C809        C  0.39659281  0.14000703  0.93029694     0.39000
C810        C  0.37739742  0.16539341  0.85732103    -0.04500
C811        C  0.37589490  0.17975197  0.84828213     0.02600
C812        C  0.36486754  0.18539152  0.85794092    -0.04100
C813        C  0.35457677  0.17592674  0.87625557    -0.00400
C814        C  0.35550440  0.16101923  0.88494623    -0.02900
C815        C  0.38977319  0.16057300  0.84794624     0.36300
C816        C  0.34412359  0.18239059  0.88680962     0.39900
C817        C  0.38568885  0.18872065  0.82897883     0.39100
C818        C  0.34473315  0.15104662  0.90362918     0.36000
C819        C  0.39274102  0.16812641  0.91090372     0.36700
C820        C  0.35176087  0.08774983  0.87787605     0.39900
N821        N  0.39344517  0.19587972  0.81357672    -0.38100
N822        N  0.39964234  0.15674172  0.84044941    -0.39700
N823        N  0.33592065  0.18762865  0.89536496    -0.37500
N824        N  0.33624151  0.14309289  0.91856536    -0.39900
N825        N  0.33573743  0.11018927  0.84613611    -0.39600
N826        N  0.34365559  0.07167928  0.87080359    -0.37300
N827        N  0.40618320  0.14489849  0.94491683    -0.38300
N828        N  0.40109847  0.18446115  0.91740397    -0.40000
C829        C  0.99551254  0.50213005  0.46075976    -0.04900
C830        C  0.98600014  0.48611560  0.47503333     0.09200
C831        C  0.99816309  0.48386912  0.48769232    -0.02300
C832        C  0.01974633  0.49698078  0.48542511    -0.00600
C833        C  0.02927219  0.51223941  0.47021365    -0.04200
C834        C  0.01698930  0.51493704  0.45808852     0.02900
C835        C  0.96309171  0.47041667  0.47516168     0.09700
C836        C  0.98836883  0.46780634  0.50282926     0.35600
C837        C  0.02612768  0.53008720  0.44203989     0.39000
C838        C  0.95339118  0.45527181  0.46000590    -0.04500
C839        C  0.93178660  0.44119777  0.45895151     0.02600
C840        C  0.91961316  0.44171476  0.47351447    -0.04100
C841        C  0.92943813  0.45653760  0.48910435    -0.00400
C842        C  0.95110766  0.47100750  0.48974093    -0.02900
C843        C  0.96577537  0.45435171  0.44531322     0.36300
C844        C  0.91734848  0.45662399  0.50483028     0.39900
C845        C  0.92223460  0.42682919  0.44226518     0.39100
C846        C  0.96112379  0.48666411  0.50525323     0.36000
C847        C  0.98302873  0.50509720  0.44848273     0.36700
C848        C  0.03210068  0.49488154  0.49896113     0.39900
N849        N  0.91465381  0.41541169  0.42893210    -0.38100
N850        N  0.97572391  0.45368673  0.43365193    -0.39700
N851        N  0.90773779  0.45667260  0.51743361    -0.37500
N852        N  0.96914186  0.49917169  0.51761895    -0.39900
N853        N  0.98050343  0.45502821  0.51494948    -0.39600
N854        N  0.04195325  0.49321995  0.50978094    -0.37300
N855        N  0.03338512  0.54213794  0.42922320    -0.38300
N856        N  0.97306616  0.50748090  0.43874366    -0.40000
C857        C  0.11530768  0.51237814  0.47297869    -0.04900
C858        C  0.10789365  0.49661391  0.45871502     0.09200
C859        C  0.09302471  0.49225291  0.44447506    -0.02300
C860        C  0.08491834  0.50298331  0.44505752    -0.00600
C861        C  0.09163094  0.51810702  0.45991463    -0.04200
C862        C  0.10717860  0.52312139  0.47358803     0.02900
C863        C  0.11407366  0.48311695  0.45987255     0.09700
C864        C  0.08569269  0.47630498  0.42956637     0.35600
C865        C  0.11410031  0.53864686  0.48886120     0.39000
C866        C  0.10355161  0.46623344  0.47319501    -0.04500
C867        C  0.10760108  0.45206981  0.47298284     0.02600
C868        C  0.12251220  0.45494927  0.45972475    -0.04100
C869        C  0.13360446  0.47223744  0.44692906    -0.00400
C870        C  0.12926192  0.48623813  0.44687561    -0.02900
C871        C  0.08816673  0.46319565  0.48678901     0.36300
C872        C  0.14914834  0.47534522  0.43356813     0.39900
C873        C  0.09601388  0.43419728  0.48604751     0.39100
C874        C  0.14001864  0.50357625  0.43317145     0.36000
C875        C  0.13089390  0.51710388  0.48733536     0.36700
C876        C  0.06967696  0.49848972  0.43033211     0.39900
N877        N  0.08671376  0.41987392  0.49636419    -0.38100
N878        N  0.07596029  0.46086767  0.49765320    -0.39700
N879        N  0.16158428  0.47783315  0.42294087    -0.37500
N880        N  0.14852222  0.51737978  0.42218353    -0.39900
N881        N  0.07991727  0.46359119  0.41768808    -0.39600
N882        N  0.05754618  0.49494896  0.41857868    -0.37300
N883        N  0.11955428  0.55100415  0.50106773    -0.38300
N884        N  0.14333070  0.52084176  0.49878083    -0.40000
C885        C  0.10912589  0.60299745  0.42276941    -0.04900
C886        C  0.10277203  0.61371192  0.43155772     0.09200
C887        C  0.09373347  0.60808474  0.45082698    -0.02300
C888        C  0.08939025  0.59067078  0.46050124    -0.00600
C889        C  0.09350756  0.57842468  0.45067443    -0.04200
C890        C  0.10447530  0.58532474  0.43224308     0.02900
C891        C  0.10334722  0.62930385  0.41958191     0.09700
C892        C  0.08784455  0.61955940  0.46017627     0.35600
C893        C  0.10971535  0.57358945  0.42219882     0.39000
C894        C  0.08745688  0.62265564  0.40565116    -0.04500
C895        C  0.08725193  0.63713357  0.39483243     0.02600
C896        C  0.10303555  0.65834053  0.39776904    -0.04100
C897        C  0.11893271  0.66500719  0.41167900    -0.00400
C898        C  0.11909179  0.65048789  0.42258072    -0.02900
C899        C  0.07114880  0.60085582  0.40266868     0.36300
C900        C  0.13470070  0.68678346  0.41524821     0.39900
C901        C  0.07069434  0.63019771  0.38076996     0.39100
C902        C  0.13524825  0.65725103  0.43706540     0.36000
C903        C  0.11946436  0.60959195  0.40342096     0.36700
C904        C  0.08018525  0.58505611  0.48040552     0.39900
N905        N  0.05744286  0.62466225  0.36962170    -0.38100
N906        N  0.05818475  0.58346926  0.40028052    -0.39700
N907        N  0.14720578  0.70416823  0.41816845    -0.37500
N908        N  0.14808020  0.66257980  0.44868995    -0.39900
N909        N  0.08312253  0.62870801  0.46759273    -0.39600
N910        N  0.07285443  0.58055851  0.49627911    -0.37300
N911        N  0.11395934  0.56429041  0.41415702    -0.38300
N912        N  0.12769352  0.61488820  0.38797857    -0.40000
C913        C  0.52466681  0.51420703  0.78347824    -0.04900
C914        C  0.53479298  0.53447142  0.79030378     0.09200
C915        C  0.55372323  0.54487706  0.80050985    -0.02300
C916        C  0.56274792  0.53519545  0.80355141    -0.00600
C917        C  0.55282598  0.51498611  0.79639391    -0.04200
C918        C  0.53362028  0.50447205  0.78645919     0.02900
C919        C  0.52592839  0.54514766  0.78558010     0.09700
C920        C  0.56400075  0.56566259  0.80766202     0.35600
C921        C  0.52342747  0.48400452  0.77835212     0.39000
C922        C  0.50879209  0.54033011  0.79638955    -0.04500
C923        C  0.49910088  0.54878891  0.79047592     0.02600
C924        C  0.50645074  0.56201242  0.77360674    -0.04100
C925        C  0.52404933  0.56730334  0.76319028    -0.00400
C926        C  0.53383436  0.55901537  0.76929308    -0.02900
C927        C  0.50109954  0.52654006  0.81352209     0.36300
C928        C  0.53159247  0.58048778  0.74557305     0.39900
C929        C  0.48183545  0.54419394  0.80202754     0.39100
C930        C  0.55186365  0.56443798  0.75857972     0.36000
C931        C  0.50522749  0.50357900  0.77286125     0.36700
C932        C  0.58212534  0.54600830  0.81429009     0.39900
N933        N  0.46809053  0.54057192  0.81126046    -0.38100
N934        N  0.49497498  0.51550509  0.82715988    -0.39700
N935        N  0.53761430  0.59097348  0.73150713    -0.37500
N936        N  0.56634322  0.56884765  0.75019685    -0.39900
N937        N  0.57223841  0.58227784  0.81328422    -0.39600
N938        N  0.59761225  0.55463511  0.82279394    -0.37300
N939        N  0.51525979  0.46768913  0.77187460    -0.38300
N940        N  0.48971403  0.49514857  0.76444827    -0.40000
C941        C  0.51806137  0.42634859  0.83179672    -0.04900
C942        C  0.51593437  0.41163041  0.81896653     0.09200
C943        C  0.53018788  0.41789229  0.80331025    -0.02300
C944        C  0.54568300  0.43898762  0.79949432    -0.00600
C945        C  0.54708760  0.45383978  0.81160563    -0.04200
C946        C  0.53373107  0.44738399  0.82829303     0.02900
C947        C  0.49729939  0.38975763  0.82061800     0.09700
C948        C  0.52818344  0.40253537  0.79057609     0.35600
C949        C  0.53573324  0.46240050  0.84163216     0.39000
C950        C  0.48016993  0.38249207  0.80828396    -0.04500
C951        C  0.46185910  0.36237936  0.81075053     0.02600
C952        C  0.46046984  0.34955066  0.82586533    -0.04100
C953        C  0.47792855  0.35656201  0.83763778    -0.00400
C954        C  0.49630264  0.37669956  0.83505141    -0.02900
C955        C  0.48127157  0.39595207  0.79336062     0.36300
C956        C  0.47682923  0.34338007  0.85289399     0.39900
C957        C  0.44462732  0.35478565  0.79738271     0.39100
C958        C  0.51404465  0.38422424  0.84755330     0.36000
C959        C  0.50341153  0.41982810  0.84797628     0.36700
C960        C  0.55903581  0.44524571  0.78219937     0.39900
N961        N  0.43091549  0.34871952  0.78668756    -0.38100
N962        N  0.48217521  0.40671732  0.78149476    -0.39700
N963        N  0.47597454  0.33282641  0.86500346    -0.37500
N964        N  0.52819041  0.39026540  0.85756913    -0.39900
N965        N  0.52645461  0.39017899  0.78048071    -0.39600
N966        N  0.56960006  0.45016091  0.76832957    -0.37300
N967        N  0.53727068  0.47437802  0.85219723    -0.38300
N968        N  0.49167266  0.41460146  0.86081750    -0.40000
C969        C  0.69318008  0.57444793  0.78979955    -0.04900
C970        C  0.67935464  0.55893397  0.77592813     0.09200
C971        C  0.68652375  0.55845641  0.75685577    -0.02300
C972        C  0.70683726  0.57450607  0.75088852    -0.00600
C973        C  0.72033608  0.59094490  0.76425029    -0.04200
C974        C  0.71367419  0.59026738  0.78405600     0.02900
C975        C  0.65678503  0.54461561  0.78034476     0.09700
C976        C  0.67252785  0.54198593  0.74290724     0.35600
C977        C  0.72781531  0.60611744  0.79843690     0.39000
C978        C  0.64368102  0.54746570  0.77038066    -0.04500
C979        C  0.62238478  0.53406567  0.77406167     0.02600
C980        C  0.61400785  0.51846297  0.78894755    -0.04100
C981        C  0.62724327  0.51553409  0.79879946    -0.00400
C982        C  0.64846404  0.52833590  0.79417835    -0.02900
C983        C  0.65220738  0.56448519  0.75643488     0.36300
C984        C  0.61939386  0.49988803  0.81417983     0.39900
C985        C  0.60917513  0.53616955  0.76192702     0.39100
C986        C  0.66185415  0.52490126  0.80374182     0.36000
C987        C  0.68604877  0.57468999  0.80965138     0.36700
C988        C  0.71307024  0.57471250  0.73042691     0.39900
N989        N  0.59869385  0.53787211  0.75221967    -0.38100
N990        N  0.65899830  0.57804301  0.74533400    -0.39700
N991        N  0.61322803  0.48742318  0.82646268    -0.37500
N992        N  0.67260416  0.52223333  0.81133968    -0.39900
N993        N  0.66131661  0.52893295  0.73174810    -0.39600
N994        N  0.71791335  0.57478034  0.71406836    -0.37300
N995        N  0.73909568  0.61873876  0.80991872    -0.38300
N996        N  0.68036630  0.57483343  0.82551088    -0.40000
C997        C  0.49557175  0.95821797  0.05925218    -0.04900
C998        C  0.51604621  0.97322630  0.06556926     0.09200
C999        C  0.52540535  0.96770440  0.07851013    -0.02300
C1000       C  0.51470649  0.94703569  0.08429623    -0.00600
C1001       C  0.49458838  0.93169847  0.07701175    -0.04200
C1002       C  0.48485395  0.93749595  0.06487553     0.02900
C1003       C  0.52835098  0.99452201  0.05724401     0.09700
C1004       C  0.54625515  0.98329883  0.08550509     0.35600
C1005       C  0.46419364  0.92211199  0.05728008     0.39000
C1006       C  0.53127500  0.01056431  0.06852196    -0.04500
C1007       C  0.54341096  0.03070256  0.06067099     0.02600
C1008       C  0.55275807  0.03483589  0.04162889    -0.04100
C1009       C  0.54954107  0.01874660  0.03020351    -0.00400
C1010       C  0.53734380  0.99862128  0.03798907    -0.02900
C1011       C  0.52177713  0.00629914  0.08815504     0.36300
C1012       C  0.55862783  0.02287203  0.01035089     0.39900
C1013       C  0.54627854  0.04720246  0.07210166     0.39100
C1014       C  0.53401793  0.98205749  0.02622610     0.36000
C1015       C  0.48576217  0.96411058  0.04650421     0.36700
C1016       C  0.52436733  0.94163962  0.09796457     0.39900
N1017       N  0.54857300  0.06042516  0.08111323    -0.38100
N1018       N  0.51421419  0.00289562  0.10383986    -0.39700
N1019       N  0.56579787  0.02609408  0.99448194    -0.37500
N1020       N  0.53123451  0.96876558  0.01688253    -0.39900
N1021       N  0.56287079  0.99578753  0.09109615    -0.39600
N1022       N  0.53204395  0.93731902  0.10888477    -0.37300
N1023       N  0.44770478  0.90986141  0.05124027    -0.38300
N1024       N  0.47798401  0.96885983  0.03633458    -0.40000
C1025       C  0.39711594  0.83783203  0.08165917    -0.04900
C1026       C  0.38976805  0.84342560  0.09710093     0.09200
C1027       C  0.40333911  0.85740690  0.11211010    -0.02300
C1028       C  0.42452427  0.86719119  0.11064163    -0.00600
C1029       C  0.43215083  0.86291200  0.09421672    -0.04200
C1030       C  0.41829699  0.84755512  0.08019887     0.02900
C1031       C  0.36844323  0.83679682  0.09592637     0.09700
C1032       C  0.39556220  0.86236506  0.12853368     0.35600
C1033       C  0.42594342  0.84291154  0.06335575     0.39000
C1034       C  0.35148026  0.81701729  0.10224733    -0.04500
C1035       C  0.33134609  0.81061264  0.09992033     0.02600
C1036       C  0.32815417  0.82422027  0.09181127    -0.04100
C1037       C  0.34528604  0.84427735  0.08602568    -0.00400
C1038       C  0.36530611  0.85037031  0.08773534    -0.02900
C1039       C  0.35481198  0.80331100  0.11112691     0.36300
C1040       C  0.34251928  0.85901307  0.07900930     0.39900
C1041       C  0.31390465  0.78978228  0.10523589     0.39100
C1042       C  0.38278004  0.87062883  0.08091090     0.36000
C1043       C  0.38299078  0.82294228  0.06660885     0.36700
C1044       C  0.43857716  0.88206556  0.12574228     0.39900
N1045       N  0.29996744  0.77313471  0.10937216    -0.38100
N1046       N  0.35749756  0.79240936  0.11826819    -0.39700
N1047       N  0.34040371  0.87084482  0.07347635    -0.37500
N1048       N  0.39675194  0.88673975  0.07546163    -0.39900
N1049       N  0.38933182  0.86631838  0.14161307    -0.39600
N1050       N  0.44981536  0.89393116  0.13777199    -0.37300
N1051       N  0.43205422  0.83924630  0.04989782    -0.38300
N1052       N  0.37164976  0.81102835  0.05466412    -0.40000
C1053       C  0.56478926  0.88891565  0.07095951    -0.04900
C1054       C  0.54537769  0.86937749  0.07215233     0.09200
C1055       C  0.54397604  0.85157136  0.07110051    -0.02300
C1056       C  0.56197076  0.85329202  0.06910791    -0.00600
C1057       C  0.58141113  0.87285089  0.06707392    -0.04200
C1058       C  0.58266233  0.89068385  0.06791551     0.02900
C1059       C  0.52652162  0.86793315  0.07399050     0.09700
C1060       C  0.52395047  0.83150805  0.07158495     0.35600
C1061       C  0.60207835  0.91089881  0.06457389     0.39000
C1062       C  0.51908753  0.87171175  0.05697934    -0.04500
C1063       C  0.50421464  0.87471895  0.05930867     0.02600
C1064       C  0.49666154  0.87384868  0.07863613    -0.04100
C1065       C  0.50252945  0.86800396  0.09533043    -0.00400
C1066       C  0.51754441  0.86514085  0.09302413    -0.02900
C1067       C  0.52735192  0.87324605  0.03720430     0.36300
C1068       C  0.49392306  0.86600909  0.11502933     0.39900
C1069       C  0.49682102  0.87895732  0.04187179     0.39100
C1070       C  0.52445350  0.86025106  0.11034645     0.36000
C1071       C  0.56628359  0.90727335  0.07257956     0.36700
C1072       C  0.56047684  0.83492100  0.06970685     0.39900
N1073       N  0.49080828  0.88222658  0.02797791    -0.38100
N1074       N  0.53398442  0.87445582  0.02145279    -0.39700
N1075       N  0.48696585  0.86435704  0.13071396    -0.37500
N1076       N  0.52993753  0.85627333  0.12414163    -0.39900
N1077       N  0.50793252  0.81552127  0.07181295    -0.39600
N1078       N  0.55927517  0.82025756  0.07035080    -0.37300
N1079       N  0.61748908  0.92706506  0.06183077    -0.38300
N1080       N  0.56739775  0.92185466  0.07390677    -0.40000
loop_ 
_geom_bond_atom_site_label_1 
_geom_bond_atom_site_label_2 
_geom_bond_distance 
_geom_bond_site_symmetry_2 
_ccdc_geom_bond_type 
C1            N2   1.357       .  A
C1            N6   1.359       .  A
C1         C1064   1.478       .  S
N2            C3   1.356       .  A
C3            N4   1.355       .  A
C3         C1001   1.488       .  S
N4            C5   1.358       .  A
C5            N6   1.360       .  A
C5         C1029   1.478       .  S
C7            N8   1.355       .  A
C7           N12   1.362       .  A
C7          C945   1.483       .  S
N8            C9   1.351       .  A
C9           N10   1.353       .  A
C9          C917   1.484       .  S
N10          C11   1.358       .  A
C11          N12   1.363       .  A
C11         C980   1.497       .  S
C13          N14   1.359       .  A
C13          N18   1.359       .  A
C13         C861   1.479       .  S
N14          C15   1.358       .  A
C15          N16   1.354       .  A
C15         C833   1.491       .  S
N16          C17   1.356       .  A
C17          N18   1.359       .  A
C17         C889   1.487       .  S
N19          C23   1.343   1_545  A
N19          N20   1.320       .  A
N19         Cu27   2.055       .  S
N20          C21   1.342   1_545  A
N20         Cu26   2.068       .  S
C21          C22   1.386       .  A
C21          H24   1.082       .  S
C22         C777   1.486       .  S
C22          C23   1.384       .  A
C23          H25   1.082       .  S
Cu26         N29   2.068       .  S
Cu27         N37   2.056       .  S
Cu28         N30   2.069       .  S
Cu28         N36   2.070       .  S
N29          C33   1.341       .  A
N29          N30   1.321       .  A
N30          C31   1.346       .  A
C31          C32   1.385       .  A
C31          H34   1.082       .  S
C32         C756   1.488       .  S
C32          C33   1.384       .  A
C33          H35   1.082       .  S
N36          C40   1.343       .  A
N36          N37   1.322       .  A
N37          C38   1.341       .  A
C38          C39   1.380       .  A
C38          H41   1.082       .  S
C39         C805   1.481       .  S
C39          C40   1.384       .  A
C40          H42   1.082       .  S
N43          C47   1.348       .  A
N43          N44   1.322       .  A
N43         Cu51   2.077       .  S
N44          C45   1.339       .  A
N44         Cu50   2.056       .  S
C45          C46   1.378       .  A
C45          H48   1.082       .  S
C46         C721   1.481       .  S
C46          C47   1.386       .  A
C47          H49   1.082       .  S
Cu50         N53   2.056       .  S
Cu51         N61   2.077       .  S
Cu52         N54   2.050       .  S
Cu52         N60   2.051       .  S
N53          C57   1.340       .  A
N53          N54   1.319       .  A
N54          C55   1.343       .  A
C55          C56   1.382       .  A
C55          H58   1.082       .  S
C56         C952   1.480       .  S
C56          C57   1.382       .  A
C57          H59   1.082       .  S
N60          C64   1.338       .  A
N60          N61   1.323       .  A
N61          C62   1.347       .  A
C62          C63   1.384       .  A
C62          H65   1.082       .  S
C63         C812   1.476       .  S
C63          C64   1.376       .  A
C64          H66   1.082       .  S
N67          C71   1.348       .  A
N67          N68   1.321       .  A
N67         Cu75   2.077       .  S
N68          C69   1.340       .  A
N68         Cu74   2.059       .  S
C69          C70   1.379       .  A
C69          H72   1.083       .  S
C70         C665   1.481       .  S
C70          C71   1.386       .  A
C71          H73   1.082       .  S
Cu74         N77   2.059       .  S
Cu75         N85   2.078       .  S
Cu76         N78   2.077       .  S
Cu76         N84   2.078       .  S
N77          C81   1.342       .  A
N77          N78   1.321       .  A
N78          C79   1.347       .  A
C79          C80   1.384       .  A
C79          H82   1.082       .  S
C80         C896   1.478       .  S
C80          C81   1.379       .  A
C81          H83   1.082       .  S
N84          C88   1.345       .  A
N84          N85   1.324       .  A
N85          C86   1.345       .  A
C86          C87   1.383       .  A
C86          H89   1.082       .  S
C87         C693   1.486       .  S
C87          C88   1.383       .  A
C88          H90   1.082       .  S
N91          C95   1.346       .  A
N91          N92   1.322       .  A
N91         Cu99   2.073       .  S
N92          C93   1.341       .  A
N92         Cu98   2.063       .  S
C93          C94   1.378       .  A
C93          H96   1.082       .  S
C94         C784   1.475       .  S
C94          C95   1.382       .  A
C95          H97   1.082       .  S
Cu98        N101   2.063       .  S
Cu99        N109   2.074       .  S
Cu100       N102   2.065       .  S
Cu100       N108   2.066       .  S
N101        C105   1.343       .  A
N101        N102   1.320       .  A
N102        C103   1.344       .  A
C103        C104   1.383       .  A
C103        H106   1.082       .  S
C104       C1036   1.484       .  S
C104        C105   1.384       .  A
C105        H107   1.082       .  S
N108        C112   1.341       .  A
N108        N109   1.322       .  A
N109        C110   1.346       .  A
C110        C111   1.386       .  A
C110        H113   1.082       .  S
C111        C700   1.487       .  S
C111        C112   1.383       .  A
C112        H114   1.082       .  S
C115        N116   1.356       .  A
C115        N120   1.359       .  A
C115        C749   1.473       .  S
N116        C117   1.353       .  A
C117        N118   1.355       .  A
C117       C1008   1.475       .  S
N118        C119   1.360       .  A
C119        N120   1.361       .  A
C119        C637   1.486       .  S
N121        C125   1.347       .  A
N121        N122   1.321       .  A
N121       Cu129   2.069       .  S
N122        C123   1.341       .  A
N122       Cu128   2.065       .  S
C123        C124   1.381       .  A
C123        H126   1.082       .  S
C124        C581   1.481       .  S
C124        C125   1.383       .  A
C125        H127   1.082       .  S
Cu128       N131   2.064       .  S
Cu129       N139   2.070       .  S
Cu130       N132   2.073       .  S
Cu130       N138   2.074       .  S
N131        C135   1.342       .  A
N131        N132   1.321       .  A
N132        C133   1.346       .  A
C133        C134   1.384       .  A
C133        H136   1.082       .  S
C134        C868   1.478       .  S
C134        C135   1.381       .  A
C135        H137   1.082       .  S
N138        C142   1.344       .  A
N138        N139   1.324       .  A
N139        C140   1.343       .  A
C140        C141   1.381       .  A
C140        H143   1.082       .  S
C141        C616   1.482       .  S
C141        C142   1.383       .  A
C142        H144   1.082       .  S
N145        C149   1.349       .  A
N145        N146   1.321       .  A
N145       Cu153   2.078       .  S
N146        C147   1.338       .  A
N146       Cu152   2.054       .  S
C147        C148   1.378       .  A
C147        H150   1.082       .  S
C148        C728   1.481       .  S
C148        C149   1.386       .  A
C149        H151   1.082       .  S
Cu152       N155   2.054       .  S
Cu153       N163   2.080       .  S
Cu154       N156   2.067       .  S
Cu154       N162   2.069       .  S
N155        C159   1.340       .  A
N155        N156   1.318       .  A
N156        C157   1.346       .  A
C157        C158   1.389       .  A
C157        H160   1.081       .  S
C158        C560   1.489       .  S
C158        C159   1.384       .  A
C159        H161   1.082       .  S
N162        C166   1.341       .  A
N162        N163   1.325       .  A
N163        C164   1.346       .  A
C164        C165   1.383       .  A
C164        H167   1.082       .  S
C165        C609   1.482       .  S
C165        C166   1.380       .  A
C166        H168   1.082       .  S
N169        C173   1.347       .  A
N169        N170   1.321       .  A
N169       Cu177   2.071       .  S
N170        C171   1.340       .  A
N170       Cu176   2.061       .  S
C171        C172   1.380       .  A
C171        H174   1.082       .  S
C172        C497   1.482       .  S
C172        C173   1.385       .  A
C173        H175   1.082       .  S
Cu176       N179   2.060       .  S
Cu177       N187   2.072       .  S
Cu178       N180   2.069       .  S
Cu178       N186   2.071       .  S
N179        C183   1.341       .  A
N179        N180   1.319       .  A
N180        C181   1.345       .  A
C181        C182   1.388       .  A
C181        H184   1.082       .  S
C182        C973   1.489       .  S
C182        C183   1.384       .  A
C183        H185   1.082       .  S
N186        C190   1.343       .  A
N186        N187   1.323       .  A
N187        C188   1.345       .  A
C188        C189   1.384       .  A
C188        H191   1.082       .  S
C189        C525   1.487       .  S
C189        C190   1.383       .  A
C190        H192   1.082       .  S
N193        C197   1.347       .  A
N193        N194   1.321       .  A
N193       Cu201   2.075       .  S
N194        C195   1.342       .  A
N194       Cu200   2.062       .  S
C195        C196   1.382       .  A
C195        H198   1.082       .  S
C196        C672   1.484       .  S
C196        C197   1.385       .  A
C197        H199   1.082       .  S
Cu200       N203   2.063       .  S
Cu201       N211   2.075       .  S
Cu202       N204   2.080       .  S
Cu202       N210   2.081       .  S
N203        C207   1.343       .  A
N203        N204   1.322       .  A
N204        C205   1.347       .  A
C205        C206   1.384       .  A
C205        H208   1.082       .  S
C206        C469   1.479       .  S
C206        C207   1.380       .  A
C207        H209   1.082       .  S
N210        C214   1.346       .  A
N210        N211   1.323       .  A
N211        C212   1.344       .  A
C212        C213   1.385       .  A
C212        H215   1.082       .  S
C213        C532   1.492       .  S
C213        C214   1.387       .  A
C214        H216   1.082       .  S
C217        N218   1.359       .  A
C217        N222   1.359       .  A
C217        C441   1.498       .  S
N218        C219   1.356       .  A
C219        N220   1.357       .  A
C219        C840   1.490       .  S
N220        C221   1.357       .  A
C221        N222   1.358       .  A
C221        C476   1.475       .  S
C223        N224   1.355       .  A
C223        N228   1.357       .  A
C223        C420   1.476       .  S
N224        C225   1.354       .  A
C225        N226   1.356       .  A
C225        C924   1.483       .  S
N226        C227   1.359       .  A
C227        N228   1.359       .  A
C227        C553   1.484       .  S
N229        C233   1.346       .  A
N229        N230   1.323       .  A
N229       Cu237   2.072       .  S
N230        C231   1.341       .  A
N230       Cu236   2.067       .  S
C231        C232   1.381       .  A
C231        H234   1.083       .  S
C232        C504   1.479       .  S
C232        C233   1.383       .  A
C233        H235   1.082       .  S
Cu236       N239   2.066       .  S
Cu237       N247   2.072       .  S
Cu238       N240   2.067       .  S
Cu238       N246   2.067       .  S
N239        C243   1.344       .  A
N239        N240   1.319       .  A
N240        C241   1.343       .  A
C241        C242   1.387       .  A
C241        H244   1.082       .  S
C242        C413   1.492       .  S
C242        C243   1.388       .  A
C243        H245   1.081       .  S
N246        C250   1.342       .  A
N246        N247   1.322       .  A
N247        C248   1.346       .  A
C248        C249   1.383       .  A
C248        H251   1.082       .  S
C249        C385   1.483       .  S
C249        C250   1.381       .  A
C250        H252   1.082       .  S
N253        C257   1.346       .  A
N253        N254   1.321       .  A
N253       Cu261   2.067       .  S
N254        C255   1.343       .  A
N254       Cu260   2.075       .  S
C255        C256   1.386       .  A
C255        H258   1.082       .  S
C256        C364   1.486       .  S
C256        C257   1.384       .  A
C257        H259   1.082       .  S
Cu260       N263   2.075       .  S
Cu261       N271   2.067       .  S
Cu262       N264   2.079       .  S
Cu262       N270   2.079       .  S
N263        C267   1.344       .  A
N263        N264   1.322       .  A
N264        C265   1.346       .  A
C265        C266   1.386       .  A
C265        H268   1.082       .  S
C266       C1057   1.492       .  S
C266        C267   1.386       .  A
C267        H269   1.082       .  S
N270        C274   1.347   1_554  A
N270        N271   1.322       .  A
N271        C272   1.342   1_554  A
C272        C273   1.381       .  A
C272        H275   1.082       .  S
C273        C392   1.486       .  S
C273        C274   1.386       .  A
C274        H276   1.082       .  S
N277        C281   1.346       .  A
N277        N278   1.321       .  A
N277       Cu285   2.070       .  S
N278        C279   1.342       .  A
N278       Cu284   2.072       .  S
C279        C280   1.384       .  A
C279        H282   1.082       .  S
C280        C588   1.488       .  S
C280        C281   1.386       .  A
C281        H283   1.082       .  S
Cu284       N287   2.072       .  S
Cu285       N295   2.071       .  S
Cu286       N288   2.065       .  S
Cu286       N294   2.065       .  S
N287        C291   1.344       .  A
N287        N288   1.322       .  A
N288        C289   1.344       .  A
C289        C290   1.382       .  A
C289        H292   1.082       .  S
C290        C448   1.481       .  S
C290        C291   1.382       .  A
C291        H293   1.082       .  S
N294        C298   1.344       .  A
N294        N295   1.322       .  A
N295        C296   1.343       .  A
C296        C297   1.382       .  A
C296        H299   1.082       .  S
C297        C336   1.481       .  S
C297        C298   1.382       .  A
C298        H300   1.082       .  S
N301        C305   1.345       .  A
N301        N302   1.322       .  A
N301       Cu309   2.066       .  S
N302        C303   1.344       .  A
N302       Cu308   2.079       .  S
C303        C304   1.384       .  A
C303        H306   1.082       .  S
C304        C357   1.483       .  S
C304        C305   1.383       .  A
C305        H307   1.082       .  S
Cu308       N311   2.079       .  S
Cu309       N319   2.065       .  S
Cu310       N312   2.063       .  S
Cu310       N318   2.063       .  S
N311        C315   1.345       .  A
N311        N312   1.322       .  A
N312        C313   1.343       .  A
C313        C314   1.381       .  A
C313        H316   1.082       .  S
C314        C644   1.482       .  S
C314        C315   1.384       .  A
C315        H317   1.083       .  S
N318        C322   1.342       .  A
N318        N319   1.321       .  A
N319        C320   1.341       .  A
C320        C321   1.384       .  A
C320        H323   1.094       .  S
C321        C329   1.488       .  S
C321        C322   1.385       .  A
C322        H324   1.085       .  S
C325        C326   1.408       .  A
C325        C330   1.407       .  A
C325        C343   1.452       .  S
C326        C331   1.489       .  S
C326        C327   1.407       .  A
C327        C328   1.409       .  A
C327        C332   1.450       .  S
C328        C329   1.417       .  A
C328        C344   1.451       .  S
C329        C330   1.419       .  A
C330        C333   1.451       .  S
C331        C334   1.408       .  A
C331        C338   1.410       .  A
C332        N349   1.157       .  T
C333        N351   1.158       .  T
C334        C335   1.408       .  A
C334        C339   1.450       .  S
C335        C336   1.415       .  A
C335        C341   1.451       .  S
C336        C337   1.413       .  A
C337        C338   1.408       .  A
C337        C340   1.451       .  S
C338        C342   1.451       .  S
C339        N346   1.157       .  T
C340        N347   1.157       .  T
C341        N345   1.157       .  T
C342        N348   1.157       .  T
C343        N352   1.157       .  T
C344        N350   1.157       .  T
C353        C354   1.410       .  A
C353        C358   1.410       .  A
C353        C371   1.449       .  S
C354        C359   1.493       .  S
C354        C355   1.410       .  A
C355        C356   1.409       .  A
C355        C360   1.451       .  S
C356        C357   1.415       .  A
C356        C372   1.451       .  S
C357        C358   1.411       .  A
C358        C361   1.450       .  S
C359        C362   1.410       .  A
C359        C366   1.410       .  A
C360        N377   1.157       .  T
C361        N379   1.157       .  T
C362        C363   1.414   1_545  A
C362        C367   1.449       .  S
C363        C364   1.415       .  A
C363        C369   1.450       .  S
C364        C365   1.415       .  A
C365        C366   1.406   1_565  A
C365        C368   1.452       .  S
C366        C370   1.452       .  S
C367        N374   1.157       .  T
C368        N375   1.157       .  T
C369        N373   1.157       .  T
C370        N376   1.157       .  T
C371        N380   1.157       .  T
C372        N378   1.157       .  T
C381        C382   1.411       .  A
C381        C386   1.410       .  A
C381        C399   1.451       .  S
C382        C387   1.492       .  S
C382        C383   1.409       .  A
C383        C384   1.407       .  A
C383        C388   1.451       .  S
C384        C385   1.415       .  A
C384        C400   1.451       .  S
C385        C386   1.413       .  A
C386        C389   1.451       .  S
C387        C390   1.410       .  A
C387        C394   1.409       .  A
C388        N405   1.157       .  T
C389        N407   1.157       .  T
C390        C391   1.409       .  A
C390        C395   1.451       .  S
C391        C392   1.415       .  A
C391        C397   1.451       .  S
C392        C393   1.415       .  A
C393        C394   1.410       .  A
C393        C396   1.451       .  S
C394        C398   1.451       .  S
C395        N402   1.157       .  T
C396        N403   1.157       .  T
C397        N401   1.157       .  T
C398        N404   1.157       .  T
C399        N408   1.157       .  T
C400        N406   1.157       .  T
C409        C410   1.408       .  A
C409        C414   1.408       .  A
C409        C427   1.453       .  S
C410        C415   1.489       .  S
C410        C411   1.407       .  A
C411        C412   1.410       .  A
C411        C416   1.450       .  S
C412        C413   1.417       .  A
C412        C428   1.450       .  S
C413        C414   1.420       .  A
C414        C417   1.450       .  S
C415        C418   1.411       .  A
C415        C422   1.409       .  A
C416        N433   1.157       .  T
C417        N435   1.158       .  T
C418        C419   1.405       .  A
C418        C423   1.452       .  S
C419        C420   1.412       .  A
C419        C425   1.452       .  S
C420        C421   1.414       .  A
C421        C422   1.411       .  A
C421        C424   1.451       .  S
C422        C426   1.449       .  S
C423        N430   1.157       .  T
C424        N431   1.157       .  T
C425        N429   1.157       .  T
C426        N432   1.157       .  T
C427        N436   1.157       .  T
C428        N434   1.157       .  T
C437        C438   1.408       .  A
C437        C442   1.408       .  A
C437        C455   1.452       .  S
C438        C443   1.492       .  S
C438        C439   1.407       .  A
C439        C440   1.412       .  A
C439        C444   1.451       .  S
C440        C441   1.423       .  A
C440        C456   1.450       .  S
C441        C442   1.420       .  A
C442        C445   1.452       .  S
C443        C446   1.409       .  A
C443        C450   1.410       .  A
C444        N461   1.157       .  T
C445        N463   1.157       .  T
C446        C447   1.410       .  A
C446        C451   1.450       .  S
C447        C448   1.412       .  A
C447        C453   1.450       .  S
C448        C449   1.414       .  A
C449        C450   1.408       .  A
C449        C452   1.451       .  S
C450        C454   1.452       .  S
C451        N458   1.157       .  T
C452        N459   1.157       .  T
C453        N457   1.157       .  T
C454        N460   1.157       .  T
C455        N464   1.157       .  T
C456        N462   1.157       .  T
C465        C466   1.411       .  A
C465        C470   1.407       .  A
C465        C483   1.452       .  S
C466        C471   1.493       .  S
C466        C467   1.411       .  A
C467        C468   1.412       .  A
C467        C472   1.449       .  S
C468        C469   1.411       .  A
C468        C484   1.450       .  S
C469        C470   1.412       .  A
C470        C473   1.451       .  S
C471        C474   1.411       .  A
C471        C478   1.411       .  A
C472        N489   1.157       .  T
C473        N491   1.157       .  T
C474        C475   1.410       .  A
C474        C479   1.450       .  S
C475        C476   1.409       .  A
C475        C481   1.450       .  S
C476        C477   1.411       .  A
C477        C478   1.409       .  A
C477        C480   1.451       .  S
C478        C482   1.451       .  S
C479        N486   1.157       .  T
C480        N487   1.157       .  T
C481        N485   1.157       .  T
C482        N488   1.157       .  T
C483        N492   1.157       .  T
C484        N490   1.157       .  T
C493        C494   1.410       .  A
C493        C498   1.410       .  A
C493        C511   1.451       .  S
C494        C499   1.489       .  S
C494        C495   1.408       .  A
C495        C496   1.407       .  A
C495        C500   1.451       .  S
C496        C497   1.414       .  A
C496        C512   1.451       .  S
C497        C498   1.415       .  A
C498        C501   1.451       .  S
C499        C502   1.410       .  A
C499        C506   1.410       .  A
C500        N517   1.157       .  T
C501        N519   1.157       .  T
C502        C503   1.404       .  A
C502        C507   1.453       .  S
C503        C504   1.413       .  A
C503        C509   1.452       .  S
C504        C505   1.412       .  A
C505        C506   1.412       .  A
C505        C508   1.450       .  S
C506        C510   1.449       .  S
C507        N514   1.157       .  T
C508        N515   1.157       .  T
C509        N513   1.157       .  T
C510        N516   1.157       .  T
C511        N520   1.157       .  T
C512        N518   1.157       .  T
C521        C522   1.410       .  A
C521        C526   1.409       .  A
C521        C539   1.451       .  S
C522        C527   1.495       .  S
C522        C523   1.409       .  A
C523        C524   1.410       .  A
C523        C528   1.451       .  S
C524        C525   1.417       .  A
C524        C540   1.451       .  S
C525        C526   1.414       .  A
C526        C529   1.451       .  S
C527        C530   1.410       .  A
C527        C534   1.408       .  A
C528        N545   1.157       .  T
C529        N547   1.157       .  T
C530        C531   1.411       .  A
C530        C535   1.451       .  S
C531        C532   1.417       .  A
C531        C537   1.451       .  S
C532        C533   1.418       .  A
C533        C534   1.409       .  A
C533        C536   1.451       .  S
C534        C538   1.451       .  S
C535        N542   1.157       .  T
C536        N543   1.157       .  T
C537        N541   1.157       .  T
C538        N544   1.157       .  T
C539        N548   1.157       .  T
C540        N546   1.157       .  T
C549        C550   1.411       .  A
C549        C554   1.406       .  A
C549        C567   1.452       .  S
C550        C555   1.491       .  S
C550        C551   1.408       .  A
C551        C552   1.411       .  A
C551        C556   1.450       .  S
C552        C553   1.417       .  A
C552        C568   1.451       .  S
C553        C554   1.415       .  A
C554        C557   1.452       .  S
C555        C558   1.408       .  A
C555        C562   1.408       .  A
C556        N573   1.157       .  T
C557        N575   1.157       .  T
C558        C559   1.408       .  A
C558        C563   1.451       .  S
C559        C560   1.416       .  A
C559        C565   1.451       .  S
C560        C561   1.419       .  A
C561        C562   1.409       .  A
C561        C564   1.450       .  S
C562        C566   1.452       .  S
C563        N570   1.157       .  T
C564        N571   1.157       .  T
C565        N569   1.157       .  T
C566        N572   1.157       .  T
C567        N576   1.157       .  T
C568        N574   1.157       .  T
C577        C578   1.411       .  A
C577        C582   1.407   1_655  A
C577        C595   1.451       .  S
C578        C583   1.494       .  S
C578        C579   1.411   1_655  A
C579        C580   1.411       .  A
C579        C584   1.450   1_455  S
C580        C581   1.412       .  A
C580        C596   1.450       .  S
C581        C582   1.413       .  A
C582        C585   1.452       .  S
C583        C586   1.411       .  A
C583        C590   1.410       .  A
C584        N601   1.157       .  T
C585        N603   1.157       .  T
C586        C587   1.408       .  A
C586        C591   1.453       .  S
C587        C588   1.416       .  A
C587        C593   1.451       .  S
C588        C589   1.415       .  A
C589        C590   1.411       .  A
C589        C592   1.451       .  S
C590        C594   1.450       .  S
C591        N598   1.157   1_655  T
C592        N599   1.157       .  T
C593        N597   1.157       .  T
C594        N600   1.157       .  T
C595        N604   1.157       .  T
C596        N602   1.157       .  T
C605        C606   1.410       .  A
C605        C610   1.409       .  A
C605        C623   1.451       .  S
C606        C611   1.490       .  S
C606        C607   1.408       .  A
C607        C608   1.408       .  A
C607        C612   1.451       .  S
C608        C609   1.414       .  A
C608        C624   1.451       .  S
C609        C610   1.413       .  A
C610        C613   1.450       .  S
C611        C614   1.410       .  A
C611        C618   1.408       .  A
C612        N629   1.157       .  T
C613        N631   1.157       .  T
C614        C615   1.408       .  A
C614        C619   1.451       .  S
C615        C616   1.414       .  A
C615        C621   1.451       .  S
C616        C617   1.414       .  A
C617        C618   1.409       .  A
C617        C620   1.451       .  S
C618        C622   1.450       .  S
C619        N626   1.157       .  T
C620        N627   1.157       .  T
C621        N625   1.157       .  T
C622        N628   1.157       .  T
C623        N632   1.157       .  T
C624        N630   1.157       .  T
C633        C634   1.409       .  A
C633        C638   1.412       .  A
C633        C651   1.450       .  S
C634        C639   1.492       .  S
C634        C635   1.408       .  A
C635        C636   1.407       .  A
C635        C640   1.452       .  S
C636        C637   1.416       .  A
C636        C652   1.451       .  S
C637        C638   1.416       .  A
C638        C641   1.450       .  S
C639        C642   1.410       .  A
C639        C646   1.410       .  A
C640        N657   1.157       .  T
C641        N659   1.157       .  T
C642        C643   1.408       .  A
C642        C647   1.452       .  S
C643        C644   1.415       .  A
C643        C649   1.451       .  S
C644        C645   1.412       .  A
C645        C646   1.410       .  A
C645        C648   1.450       .  S
C646        C650   1.450       .  S
C647        N654   1.157       .  T
C648        N655   1.157       .  T
C649        N653   1.157       .  T
C650        N656   1.157   1_554  T
C651        N660   1.157       .  T
C652        N658   1.157       .  T
C661        C662   1.410       .  A
C661        C666   1.411       .  A
C661        C679   1.450       .  S
C662        C667   1.493       .  S
C662        C663   1.409       .  A
C663        C664   1.408   1_655  A
C663        C668   1.450       .  S
C664        C665   1.412       .  A
C664        C680   1.451       .  S
C665        C666   1.414   1_455  A
C666        C669   1.450       .  S
C667        C670   1.411       .  A
C667        C674   1.409       .  A
C668        N685   1.157       .  T
C669        N687   1.157       .  T
C670        C671   1.407       .  A
C670        C675   1.452       .  S
C671        C672   1.415       .  A
C671        C677   1.452       .  S
C672        C673   1.413       .  A
C673        C674   1.412       .  A
C673        C676   1.450       .  S
C674        C678   1.449       .  S
C675        N682   1.157       .  T
C676        N683   1.157       .  T
C677        N681   1.157       .  T
C678        N684   1.157       .  T
C679        N688   1.157       .  T
C680        N686   1.157       .  T
C689        C690   1.409       .  A
C689        C694   1.410       .  A
C689        C707   1.451       .  S
C690        C695   1.493       .  S
C690        C691   1.410       .  A
C691        C692   1.410       .  A
C691        C696   1.451       .  S
C692        C693   1.415       .  A
C692        C708   1.451       .  S
C693        C694   1.415       .  A
C694        C697   1.450       .  S
C695        C698   1.410       .  A
C695        C702   1.409       .  A
C696        N713   1.157       .  T
C697        N715   1.157       .  T
C698        C699   1.411       .  A
C698        C703   1.451       .  S
C699        C700   1.416       .  A
C699        C705   1.451       .  S
C700        C701   1.416       .  A
C701        C702   1.408       .  A
C701        C704   1.451       .  S
C702        C706   1.451       .  S
C703        N710   1.157       .  T
C704        N711   1.157       .  T
C705        N709   1.157       .  T
C706        N712   1.157       .  T
C707        N716   1.157       .  T
C708        N714   1.157       .  T
C717        C718   1.411       .  A
C717        C722   1.407       .  A
C717        C735   1.451       .  S
C718        C723   1.493       .  S
C718        C719   1.410       .  A
C719        C720   1.410       .  A
C719        C724   1.451       .  S
C720        C721   1.414       .  A
C720        C736   1.450       .  S
C721        C722   1.412       .  A
C722        C725   1.451       .  S
C723        C726   1.411       .  A
C723        C730   1.411       .  A
C724        N741   1.157       .  T
C725        N743   1.157       .  T
C726        C727   1.406       .  A
C726        C731   1.452       .  S
C727        C728   1.413       .  A
C727        C733   1.452       .  S
C728        C729   1.412       .  A
C729        C730   1.412       .  A
C729        C732   1.450       .  S
C730        C734   1.450       .  S
C731        N738   1.157       .  T
C732        N739   1.157       .  T
C733        N737   1.157       .  T
C734        N740   1.157       .  T
C735        N744   1.157       .  T
C736        N742   1.157       .  T
C745        C746   1.412       .  A
C745        C750   1.408       .  A
C745        C763   1.451       .  S
C746        C751   1.494       .  S
C746        C747   1.412   1_556  A
C747        C748   1.409       .  A
C747        C752   1.450       .  S
C748        C749   1.410       .  A
C748        C764   1.450       .  S
C749        C750   1.410   1_554  A
C750        C753   1.451       .  S
C751        C754   1.411       .  A
C751        C758   1.410       .  A
C752        N769   1.157       .  T
C753        N771   1.157       .  T
C754        C755   1.406       .  A
C754        C759   1.453   1_556  S
C755        C756   1.416       .  A
C755        C761   1.452       .  S
C756        C757   1.416       .  A
C757        C758   1.412       .  A
C757        C760   1.450       .  S
C758        C762   1.450       .  S
C759        N766   1.157       .  T
C760        N767   1.157       .  T
C761        N765   1.157   1_556  T
C762        N768   1.157       .  T
C763        N772   1.157       .  T
C764        N770   1.157       .  T
C773        C774   1.409       .  A
C773        C778   1.410       .  A
C773        C791   1.451   1_556  S
C774        C779   1.492   1_556  S
C774        C775   1.411       .  A
C775        C776   1.406       .  A
C775        C780   1.452       .  S
C776        C777   1.414       .  A
C776        C792   1.451       .  S
C777        C778   1.418       .  A
C778        C781   1.451       .  S
C779        C782   1.411   1_554  A
C779        C786   1.412       .  A
C780        N797   1.157       .  T
C781        N799   1.158       .  T
C782        C783   1.410   1_556  A
C782        C787   1.450       .  S
C783        C784   1.409       .  A
C783        C789   1.450       .  S
C784        C785   1.411       .  A
C785        C786   1.406       .  A
C785        C788   1.452       .  S
C786        C790   1.452       .  S
C787        N794   1.157       .  T
C788        N795   1.157       .  T
C789        N793   1.157   1_554  T
C790        N796   1.157       .  T
C791        N800   1.157       .  T
C792        N798   1.157       .  T
C801        C802   1.411       .  A
C801        C806   1.407       .  A
C801        C819   1.452       .  S
C802        C807   1.489       .  S
C802        C803   1.409       .  A
C803        C804   1.407       .  A
C803        C808   1.452       .  S
C804        C805   1.416       .  A
C804        C820   1.451       .  S
C805        C806   1.414       .  A
C806        C809   1.451       .  S
C807        C810   1.410       .  A
C807        C814   1.411       .  A
C808        N825   1.157       .  T
C809        N827   1.157       .  T
C810        C811   1.405       .  A
C810        C815   1.451       .  S
C811        C812   1.412       .  A
C811        C817   1.452       .  S
C812        C813   1.412       .  A
C813        C814   1.408       .  A
C813        C816   1.451       .  S
C814        C818   1.451       .  S
C815        N822   1.157       .  T
C816        N823   1.157       .  T
C817        N821   1.157       .  T
C818        N824   1.157       .  T
C819        N828   1.157       .  T
C820        N826   1.157       .  T
C829        C830   1.409       .  A
C829        C834   1.408   1_655  A
C829        C847   1.452       .  S
C830        C835   1.495       .  S
C830        C831   1.410       .  A
C831        C832   1.412   1_655  A
C831        C836   1.450       .  S
C832        C833   1.416       .  A
C832        C848   1.451       .  S
C833        C834   1.419       .  A
C834        C837   1.452       .  S
C835        C838   1.410       .  A
C835        C842   1.410       .  A
C836        N853   1.157       .  T
C837        N855   1.157       .  T
C838        C839   1.408       .  A
C838        C843   1.452       .  S
C839        C840   1.417       .  A
C839        C845   1.452       .  S
C840        C841   1.417       .  A
C841        C842   1.413       .  A
C841        C844   1.451       .  S
C842        C846   1.450       .  S
C843        N850   1.157       .  T
C844        N851   1.157       .  T
C845        N849   1.157       .  T
C846        N852   1.157       .  T
C847        N856   1.157       .  T
C848        N854   1.157       .  T
C857        C858   1.411       .  A
C857        C862   1.411       .  A
C857        C875   1.450       .  S
C858        C863   1.493       .  S
C858        C859   1.411       .  A
C859        C860   1.408       .  A
C859        C864   1.451       .  S
C860        C861   1.412       .  A
C860        C876   1.451       .  S
C861        C862   1.411       .  A
C862        C865   1.450       .  S
C863        C866   1.411       .  A
C863        C870   1.412       .  A
C864        N881   1.157       .  T
C865        N883   1.157       .  T
C866        C867   1.407       .  A
C866        C871   1.451       .  S
C867        C868   1.412       .  A
C867        C873   1.452       .  S
C868        C869   1.410       .  A
C869        C870   1.412       .  A
C869        C872   1.450       .  S
C870        C874   1.449       .  S
C871        N878   1.157       .  T
C872        N879   1.157       .  T
C873        N877   1.157       .  T
C874        N880   1.157       .  T
C875        N884   1.157       .  T
C876        N882   1.157       .  T
C885        C886   1.410       .  A
C885        C890   1.411       .  A
C885        C903   1.451       .  S
C886        C891   1.492       .  S
C886        C887   1.409       .  A
C887        C888   1.408       .  A
C887        C892   1.451       .  S
C888        C889   1.415       .  A
C888        C904   1.452       .  S
C889        C890   1.417       .  A
C890        C893   1.451       .  S
C891        C894   1.412       .  A
C891        C898   1.410       .  A
C892        N909   1.157       .  T
C893        N911   1.158       .  T
C894        C895   1.407       .  A
C894        C899   1.452       .  S
C895        C896   1.411       .  A
C895        C901   1.451       .  S
C896        C897   1.411       .  A
C897        C898   1.411       .  A
C897        C900   1.450       .  S
C898        C902   1.449       .  S
C899        N906   1.157       .  T
C900        N907   1.157       .  T
C901        N905   1.157       .  T
C902        N908   1.157       .  T
C903        N912   1.157       .  T
C904        N910   1.157       .  T
C913        C914   1.410       .  A
C913        C918   1.407       .  A
C913        C931   1.452       .  S
C914        C919   1.491       .  S
C914        C915   1.409       .  A
C915        C916   1.409       .  A
C915        C920   1.451       .  S
C916        C917   1.416       .  A
C916        C932   1.451       .  S
C917        C918   1.417       .  A
C918        C921   1.452       .  S
C919        C922   1.410       .  A
C919        C926   1.410       .  A
C920        N937   1.157       .  T
C921        N939   1.158       .  T
C922        C923   1.409       .  A
C922        C927   1.451       .  S
C923        C924   1.414       .  A
C923        C929   1.451       .  S
C924        C925   1.416       .  A
C925        C926   1.408       .  A
C925        C928   1.452       .  S
C926        C930   1.452       .  S
C927        N934   1.157       .  T
C928        N935   1.157       .  T
C929        N933   1.157       .  T
C930        N936   1.157       .  T
C931        N940   1.157       .  T
C932        N938   1.157       .  T
C941        C942   1.408       .  A
C941        C946   1.406       .  A
C941        C959   1.452       .  S
C942        C947   1.489       .  S
C942        C943   1.409       .  A
C943        C944   1.411       .  A
C943        C948   1.451       .  S
C944        C945   1.415       .  A
C944        C960   1.450       .  S
C945        C946   1.416       .  A
C946        C949   1.452       .  S
C947        C950   1.410       .  A
C947        C954   1.409       .  A
C948        N965   1.157       .  T
C949        N967   1.157       .  T
C950        C951   1.405       .  A
C950        C955   1.452       .  S
C951        C952   1.414       .  A
C951        C957   1.452       .  S
C952        C953   1.414       .  A
C953        C954   1.409       .  A
C953        C956   1.451       .  S
C954        C958   1.450       .  S
C955        N962   1.157       .  T
C956        N963   1.157       .  T
C957        N961   1.157       .  T
C958        N964   1.157       .  T
C959        N968   1.157       .  T
C960        N966   1.157       .  T
C969        C970   1.411       .  A
C969        C974   1.411       .  A
C969        C987   1.451       .  S
C970        C975   1.497       .  S
C970        C971   1.411       .  A
C971        C972   1.409       .  A
C971        C976   1.452       .  S
C972        C973   1.418       .  A
C972        C988   1.451       .  S
C973        C974   1.415       .  A
C974        C977   1.451       .  S
C975        C978   1.410       .  A
C975        C982   1.410       .  A
C976        N993   1.157       .  T
C977        N995   1.157       .  T
C978        C979   1.406       .  A
C978        C983   1.453       .  S
C979        C980   1.421       .  A
C979        C985   1.453       .  S
C980        C981   1.420       .  A
C981        C982   1.414       .  A
C981        C984   1.450       .  S
C982        C986   1.451       .  S
C983        N990   1.157       .  T
C984        N991   1.157       .  T
C985        N989   1.158       .  T
C986        N992   1.157       .  T
C987        N996   1.157       .  T
C988        N994   1.157       .  T
C997        C998   1.410       .  A
C997       C1002   1.410       .  A
C997       C1015   1.451       .  S
C998       C1003   1.494       .  S
C998        C999   1.410       .  A
C999       C1000   1.410       .  A
C999       C1004   1.451       .  S
C1000      C1001   1.415       .  A
C1000      C1016   1.451       .  S
C1001      C1002   1.417       .  A
C1002      C1005   1.451       .  S
C1003      C1006   1.411   1_565  A
C1003      C1010   1.412       .  A
C1004      N1021   1.157       .  T
C1005      N1023   1.158       .  T
C1006      C1007   1.411       .  A
C1006      C1011   1.449       .  S
C1007      C1008   1.410       .  A
C1007      C1013   1.450       .  S
C1008      C1009   1.410       .  A
C1009      C1010   1.408   1_545  A
C1009      C1012   1.451       .  S
C1010      C1014   1.451       .  S
C1011      N1018   1.157       .  T
C1012      N1019   1.157   1_554  T
C1013      N1017   1.157       .  T
C1014      N1020   1.157       .  T
C1015      N1024   1.157       .  T
C1016      N1022   1.157       .  T
C1025      C1026   1.410       .  A
C1025      C1030   1.409       .  A
C1025      C1043   1.451       .  S
C1026      C1031   1.492       .  S
C1026      C1027   1.410       .  A
C1027      C1028   1.408       .  A
C1027      C1032   1.451       .  S
C1028      C1029   1.412       .  A
C1028      C1044   1.451       .  S
C1029      C1030   1.413       .  A
C1030      C1033   1.451       .  S
C1031      C1034   1.409       .  A
C1031      C1038   1.411       .  A
C1032      N1049   1.157       .  T
C1033      N1051   1.157       .  T
C1034      C1035   1.411       .  A
C1034      C1039   1.450       .  S
C1035      C1036   1.414       .  A
C1035      C1041   1.450       .  S
C1036      C1037   1.415       .  A
C1037      C1038   1.407       .  A
C1037      C1040   1.452       .  S
C1038      C1042   1.453       .  S
C1039      N1046   1.157       .  T
C1040      N1047   1.157       .  T
C1041      N1045   1.157       .  T
C1042      N1048   1.157       .  T
C1043      N1052   1.157       .  T
C1044      N1050   1.157       .  T
C1053      C1054   1.410       .  A
C1053      C1058   1.409       .  A
C1053      C1071   1.453       .  S
C1054      C1059   1.495       .  S
C1054      C1055   1.409       .  A
C1055      C1056   1.413       .  A
C1055      C1060   1.450       .  S
C1056      C1057   1.416       .  A
C1056      C1072   1.450       .  S
C1057      C1058   1.418       .  A
C1058      C1061   1.451       .  S
C1059      C1062   1.411       .  A
C1059      C1066   1.412       .  A
C1060      N1077   1.157       .  T
C1061      N1079   1.157       .  T
C1062      C1063   1.408       .  A
C1062      C1067   1.450       .  S
C1063      C1064   1.411       .  A
C1063      C1069   1.451       .  S
C1064      C1065   1.411       .  A
C1065      C1066   1.411       .  A
C1065      C1068   1.450       .  S
C1066      C1070   1.450       .  S
C1067      N1074   1.157       .  T
C1068      N1075   1.157       .  T
C1069      N1073   1.157       .  T
C1070      N1076   1.157       .  T
C1071      N1080   1.157       .  T
C1072      N1078   1.157       .  T
