geometry optimzed in LAMMPS
_audit_creation_date              2020-12-01 
_audit_creation_method            'lammps2cif' 
_symmetry_space_group_name_H-M    'P1' 
_symmetry_Int_Tables_number       1 
_symmetry_cell_setting            triclinic 
loop_ 
_symmetry_equiv_pos_as_xyz 
  x,y,z 
_cell_length_a                    23.0790392 
_cell_length_b                    22.568876376853208 
_cell_length_c                    22.972571874660492 
_cell_angle_alpha                 84.47394942207802 
_cell_angle_beta                  86.47491863266566 
_cell_angle_gamma                 94.2849067404037 
loop_ 
_atom_site_label 
_atom_site_type_symbol 
_atom_site_fract_x 
_atom_site_fract_y 
_atom_site_fract_z 
_atom_site_charge 
C1          C  0.79114024  0.51668205  0.04796176     0.86800
C2          C  0.75213851  0.46073946  0.03303245    -0.53500
C3          C  0.72300799  0.46353680  0.98295001     0.09700
C4          C  0.73802018  0.52727929  0.94954136     0.20700
C5          C  0.83197046  0.53715600  0.99458045    -0.54200
C6          C  0.80864151  0.53678540  0.94108102     0.09800
C7          C  0.74864074  0.56559495  0.04498658    -0.53700
C8          C  0.71803436  0.57240112  0.99525899     0.10400
H9          H  0.74087268  0.42339422  0.06630452     0.14900
H10         H  0.71704173  0.53361649  0.90759916     0.00600
H11         H  0.87882187  0.53861751  0.99870971     0.15200
H12         H  0.73634371  0.58886878  0.08120410     0.15000
C13         C  0.48613168  0.76071377  0.09154059     0.86800
C14         C  0.54490918  0.73509893  0.07848450    -0.53500
C15         C  0.54950743  0.70707388  0.02836908     0.09700
C16         C  0.49253654  0.70805784  0.99598432     0.20700
C17         C  0.47592249  0.80148378  0.03536644    -0.54200
C18         C  0.48141514  0.77450351  0.98487788     0.09800
C19         C  0.44009254  0.70790473  0.08957675    -0.46500
C20         C  0.44221362  0.67797177  0.04082451     0.10400
H21         H  0.57783959  0.73301210  0.11024902     0.14900
H22         H  0.49800310  0.69205063  0.95389620     0.00600
H23         H  0.45819743  0.84426330  0.03456662     0.15200
H24         H  0.40736535  0.69360073  0.12469972     0.15000
C25         C  0.01342192  0.41169137  0.73663386     0.86800
C26         C  0.96761706  0.42396781  0.78469985    -0.53500
C27         C  0.97821605  0.47606932  0.81003122     0.09700
C28         C  0.03884402  0.50839624  0.78762411     0.20700
C29         C  0.01640315  0.46890004  0.69707982    -0.54200
C30         C  0.03225541  0.52081803  0.72011203     0.09800
C31         C  0.06876903  0.41108833  0.76873577    -0.53700
C32         C  0.08556755  0.46053504  0.79547974     0.10400
H33         H  0.92942475  0.39381215  0.79856236     0.14900
H34         H  0.04943572  0.54698155  0.81005162     0.00600
H35         H  0.99301759  0.46913901  0.65740137     0.15200
H36         H  0.08688803  0.36998230  0.77952901     0.15000
C37         C  0.44088512  0.98032072  0.71589806     0.86800
C38         C  0.46022683  0.04077786  0.73976468    -0.53500
C39         C  0.50256962  0.03960176  0.78065182     0.09700
C40         C  0.52502252  0.97432427  0.78824498     0.20700
C41         C  0.49808708  0.95954009  0.69018397    -0.54200
C42         C  0.54384293  0.96278369  0.72400971     0.09800
C43         C  0.42658517  0.93754513  0.77164799    -0.53700
C44         C  0.47086359  0.92780535  0.80678492     0.10400
H45         H  0.44132267  0.08179992  0.72809307     0.14900
H46         H  0.55971059  0.96771560  0.81786285     0.00600
H47         H  0.50255029  0.94415783  0.64689586     0.15200
H48         H  0.38489240  0.91142075  0.77891421     0.15000
C49         C  0.78251961  0.92121853  0.50208203     0.86800
C50         C  0.73725715  0.92915531  0.45767140    -0.53500
C51         C  0.70322350  0.97513586  0.46521048     0.09700
C52         C  0.71998416  0.01216838  0.51750420     0.20700
C53         C  0.81734393  0.98251597  0.49489590    -0.54200
C54         C  0.78714338  0.03117932  0.50285387     0.09800
C55         C  0.74623569  0.91841450  0.56130549    -0.53700
C56         C  0.71517482  0.96566006  0.57262866     0.10400
H57         H  0.72724370  0.89959395  0.42560647     0.14900
H58         H  0.69225256  0.04889455  0.52352882     0.00600
H59         H  0.86425763  0.98633437  0.49145748     0.15200
H60         H  0.74499816  0.87842412  0.59153075     0.15000
C61         C  0.92975995  0.75482703  0.49994783     0.86800
C62         C  0.93838851  0.71582882  0.55729079    -0.53500
C63         C  0.98721603  0.68483537  0.56005611     0.09700
C64         C  0.02475737  0.69799164  0.50090124     0.20700
C65         C  0.98601469  0.79453154  0.48720806    -0.54200
C66         C  0.03561375  0.76719595  0.49113150     0.09800
C67         C  0.93199016  0.70994824  0.45441667    -0.53700
C68         C  0.98208097  0.67965858  0.45134766     0.10400
H69         H  0.90634394  0.71422579  0.59406977     0.14900
H70         H  0.06758318  0.68178095  0.50348489     0.00600
H71         H  0.98671557  0.84259240  0.48401581     0.15200
H72         H  0.89457748  0.69811823  0.43042900     0.15000
C73         C  0.20681179  0.43540918  0.06577293     0.86800
C74         C  0.24919467  0.49037192  0.06863931    -0.53500
C75         C  0.29292624  0.50100728  0.02466311     0.09700
C76         C  0.28757848  0.45482622  0.97875566     0.20700
C77         C  0.18319186  0.44508614  0.00481644    -0.54200
C78         C  0.22415956  0.45789760  0.95916090     0.09800
C79         C  0.24645817  0.38379999  0.05977741    -0.53700
C80         C  0.28931343  0.39227688  0.01482451     0.10400
H81         H  0.24757619  0.51608923  0.10628324     0.14900
H82         H  0.31919462  0.46377613  0.94078557     0.00600
H83         H  0.13865380  0.43745772  0.99615273     0.15200
H84         H  0.24448383  0.34503522  0.09176774     0.15000
O85         O  0.99420834  0.63153244  0.92534075    -0.74100
O86         O  0.86083725  0.66758206  0.02032303    -0.74200
O87         O  0.88709551  0.66850447  0.90597093    -0.74200
O88         O  0.96027370  0.62741297  0.03955755    -0.74300
O89         O  0.01625578  0.71245689  0.02979396    -0.74200
O90         O  0.92524830  0.76231538  0.89905831    -0.74200
O91         O  0.90712622  0.75659074  0.02575646    -0.74200
O92         O  0.03114205  0.72634442  0.91596620    -0.74200
Ni93       Ni  0.92386395  0.64598392  0.97215597     1.25400
Ni94       Ni  0.96961956  0.74451043  0.96806419     1.25400
C95         C  0.03642249  0.67179819  0.90908599     0.88000
C96         C  0.86957523  0.71384414  0.04739326     0.88000
C97         C  0.89941085  0.71828686  0.87603423     0.88000
C98         C  0.00722496  0.65660188  0.04806457     0.88200
N99         N  0.89325348  0.53019101  0.85783786    -0.03200
C100        C  0.84972382  0.50593409  0.90035375    -0.00600
C101        C  0.86715156  0.45218768  0.92516790    -0.23500
C102        C  0.92034781  0.44338796  0.90107197    -0.23700
C103        C  0.93591058  0.48982021  0.85859823    -0.00700
H104        H  0.84717381  0.42608098  0.96408149     0.13100
H105        H  0.94410057  0.40450794  0.91126123     0.13100
C106        C  0.93709681  0.48659433  0.21614960     0.86800
C107        C  0.94697209  0.53848170  0.25348232    -0.53500
C108        C  0.99271250  0.53457281  0.28928405     0.09700
C109        C  0.02594127  0.47678311  0.28049044     0.20700
C110        C  0.99518846  0.48284750  0.18211353    -0.54200
C111        C  0.04193321  0.47500250  0.21415974     0.09800
C112        C  0.93271146  0.43048805  0.26183567    -0.53700
C113        C  0.97936777  0.42233408  0.29598517     0.10400
H114        H  0.91400116  0.56956885  0.25968713     0.14900
H115        H  0.06673775  0.48146436  0.30030272     0.00600
H116        H  0.99591494  0.47745807  0.13641221     0.15200
H117        H  0.89529252  0.39819490  0.26405718     0.15000
N118        N  0.85411018  0.52436651  0.14561456    -0.03200
C119        C  0.82597573  0.49542177  0.10278169    -0.00600
C120        C  0.84470284  0.43816311  0.10401052    -0.23500
C121        C  0.88078213  0.43009508  0.14750858    -0.23700
C122        C  0.88760140  0.48269834  0.17312004    -0.00700
H123        H  0.83638211  0.40542925  0.07347189     0.13100
H124        H  0.90410030  0.39065634  0.15630121     0.13100
N125        N  0.16174284  0.49029458  0.87338194    -0.03200
C126        C  0.14243680  0.45850789  0.82889400    -0.00600
C127        C  0.18102157  0.41475340  0.82120045    -0.23500
C128        C  0.22039379  0.41623392  0.86339842    -0.23700
C129        C  0.20692486  0.46119870  0.89669499    -0.00700
H130        H  0.17993359  0.38233987  0.78988212     0.13100
H131        H  0.25183143  0.38381018  0.87232322     0.13100
O132        O  0.64196576  0.48818532  0.72992793    -0.74100
O133        O  0.50584946  0.57763767  0.75217647    -0.74200
O134        O  0.62256521  0.61013908  0.74330720    -0.74200
O135        O  0.51952767  0.46217579  0.74657715    -0.74300
O136        O  0.56297442  0.43755811  0.82524318    -0.74200
O137        O  0.61000023  0.59524299  0.84085868    -0.74200
O138        O  0.50685079  0.53677277  0.84358420    -0.74200
O139        O  0.66281619  0.49823068  0.82154292    -0.74200
Ni140      Ni  0.57380827  0.53541430  0.73676364     1.25400
Ni141      Ni  0.58554489  0.51631802  0.83673239     1.25400
C142        C  0.67180626  0.47415349  0.77442534     0.88000
C143        C  0.48190045  0.56727736  0.80411666     0.88000
C144        C  0.62718739  0.62883923  0.79468603     0.88000
C145        C  0.52002298  0.42996595  0.79594379     0.88200
N146        N  0.63542146  0.65039836  0.98547887    -0.03200
C147        C  0.65769799  0.59682250  0.00606556    -0.00600
C148        C  0.62557184  0.57431538  0.05768827    -0.23500
C149        C  0.58431941  0.61200167  0.06973755    -0.23700
C150        C  0.59009886  0.65805930  0.02568161    -0.00700
H151        H  0.63578287  0.53820005  0.08847000     0.13100
H152        H  0.55388718  0.60718647  0.10801625     0.13100
C153        C  0.52400175  0.18785269  0.04668274     0.86800
C154        C  0.46815816  0.22085011  0.04129535    -0.53500
C155        C  0.46291967  0.26077980  0.99397552     0.09700
C156        C  0.51849019  0.26263876  0.94980137     0.20700
C157        C  0.52903544  0.15965384  0.98773640    -0.54200
C158        C  0.52799147  0.19577649  0.93627840     0.09800
C159        C  0.57197717  0.24052106  0.03700568    -0.53700
C160        C  0.57137174  0.28008994  0.98669730     0.10400
H161        H  0.43598639  0.21785838  0.07827318     0.14900
H162        H  0.51338156  0.29302394  0.91017756     0.00600
H163        H  0.52582298  0.11315723  0.98509682     0.15200
H164        H  0.60006177  0.25200396  0.06995165     0.15000
O165        O  0.63130771  0.08607807  0.95240514    -0.74100
O166        O  0.68215682  0.19404010  0.05306686    -0.74200
O167        O  0.68189796  0.19529095  0.93893897    -0.74200
O168        O  0.63210994  0.08018468  0.06557428    -0.74300
O169        O  0.71565221  0.03754681  0.06313669    -0.74200
O170        O  0.76662680  0.15431683  0.93485310    -0.74200
O171        O  0.76440764  0.15051908  0.06166409    -0.74200
O172        O  0.71330657  0.04076661  0.95046741    -0.74200
Ni173      Ni  0.65462301  0.14077768  0.00296339     1.25400
Ni174      Ni  0.74518459  0.09637004  0.00203871     1.25400
C175        C  0.65896693  0.04145837  0.94120713     0.88000
C176        C  0.72536646  0.18294773  0.08195959     0.88000
C177        C  0.72755317  0.18370495  0.90992562     0.88000
C178        C  0.66092549  0.03428785  0.07546200     0.88200
N179        N  0.49412695  0.85625536  0.89755662    -0.03200
C180        C  0.47013655  0.80306215  0.92506797    -0.00600
C181        C  0.42917196  0.77945971  0.89072114    -0.23500
C182        C  0.42664303  0.82042576  0.84233499    -0.23700
C183        C  0.46635068  0.86894492  0.84762787    -0.00700
H184        H  0.40192315  0.73819801  0.90096639     0.13100
H185        H  0.39744594  0.81527624  0.80780000     0.13100
C186        C  0.49859440  0.91146182  0.24368531     0.86800
C187        C  0.44168518  0.92023711  0.27758206    -0.53500
C188        C  0.43833128  0.96877493  0.30825723     0.09700
C189        C  0.49896413  0.00912640  0.29762554     0.20700
C190        C  0.50629949  0.96956428  0.20290577    -0.54200
C191        C  0.51009965  0.02224496  0.22897427     0.09800
C192        C  0.54609270  0.91655167  0.28614715    -0.53700
C193        C  0.54927439  0.96660465  0.31522276     0.10400
H194        H  0.40313413  0.89165585  0.27182573     0.14900
H195        H  0.49819199  0.05109072  0.31732503     0.00600
H196        H  0.49420685  0.97021227  0.15891227     0.15200
H197        H  0.57411071  0.88052864  0.29492638     0.15000
N198        N  0.51658360  0.83507605  0.16611422    -0.03200
C199        C  0.48361386  0.78690045  0.15141974    -0.00600
C200        C  0.44751754  0.76422074  0.20042800    -0.23500
C201        C  0.45510130  0.80262469  0.24254912    -0.23700
C202        C  0.49431747  0.84951794  0.21873482    -0.00700
H203        H  0.41755952  0.72480379  0.20666829     0.13100
H204        H  0.43103107  0.79826224  0.28488130     0.13100
N205        N  0.54436611  0.13044154  0.84502172    -0.03200
C206        C  0.51147530  0.16448534  0.88150226    -0.00600
C207        C  0.45341697  0.14670497  0.88064400    -0.23500
C208        C  0.44839975  0.10051547  0.84686379    -0.23700
C209        C  0.50305154  0.08913240  0.82431513    -0.00700
H210        H  0.41829008  0.16118510  0.90784303     0.13100
H211        H  0.40782613  0.07537200  0.84122610     0.13100
O212        O  0.19445446  0.56625667  0.51777314    -0.74100
O213        O  0.18644031  0.41926599  0.45657991    -0.74200
O214        O  0.19536860  0.45325358  0.56359335    -0.74200
O215        O  0.18371979  0.53127815  0.41457094    -0.74300
O216        O  0.27507569  0.56784116  0.41630705    -0.74200
O217        O  0.28343995  0.43126724  0.53706424    -0.74200
O218        O  0.27510014  0.44552086  0.41520958    -0.74200
O219        O  0.28549576  0.55555747  0.53686690    -0.74200
Ni220      Ni  0.18640457  0.49197755  0.48902687     1.25400
Ni221      Ni  0.28630710  0.50034414  0.47555149     1.25400
C222        C  0.23765283  0.58032721  0.54575228     0.88000
C223        C  0.22526125  0.41563098  0.41559023     0.88000
C224        C  0.23650502  0.42061326  0.57156403     0.88000
C225        C  0.22412509  0.57059630  0.39594986     0.88200
N226        N  0.03570018  0.61182852  0.64072232    -0.03200
C227        C  0.99064272  0.63900647  0.61393551    -0.00600
C228        C  0.93859060  0.61651105  0.64485237    -0.23500
C229        C  0.95055998  0.57812362  0.69072977    -0.23700
C230        C  0.00977997  0.57562080  0.68898224    -0.00700
H231        H  0.89469042  0.62329061  0.63334253     0.13100
H232        H  0.91853950  0.54894070  0.71821026     0.13100
O233        O  0.54276407  0.17113620  0.44660708    -0.74100
O234        O  0.45834971  0.16840942  0.58836163    -0.74200
O235        O  0.43030503  0.17554574  0.47699071    -0.74200
O236        O  0.56999079  0.16608370  0.55072929    -0.74300
O237        O  0.56243106  0.25715436  0.57500201    -0.74200
O238        O  0.46448738  0.26491264  0.43850043    -0.74200
O239        O  0.44327024  0.26238017  0.56181259    -0.74200
O240        O  0.58336596  0.26042522  0.45250324    -0.74200
Ni241      Ni  0.49964902  0.16661593  0.51611471     1.25400
Ni242      Ni  0.51399220  0.26823030  0.50680728     1.25400
C243        C  0.58347509  0.20995370  0.43038829     0.88000
C244        C  0.42827494  0.21228170  0.59367435     0.88000
C245        C  0.43221078  0.21614777  0.43451915     0.88000
C246        C  0.58267373  0.20545605  0.58410953     0.88200
N247        N  0.63128550  0.99196730  0.64755594    -0.03200
C248        C  0.67993550  0.96338535  0.63240705    -0.00600
C249        C  0.68578723  0.91785810  0.67698116    -0.23500
C250        C  0.63835364  0.91437442  0.71634770    -0.23700
C251        C  0.60453602  0.95846300  0.69701412    -0.00700
H252        H  0.71983268  0.88765194  0.68047736     0.13100
H253        H  0.62865661  0.88176390  0.75403563     0.13100
C254        C  0.27851104  0.97139216  0.56347944     0.86800
C255        C  0.23610243  0.91854586  0.55226204    -0.53500
C256        C  0.19764369  0.92989197  0.50935171     0.09700
C257        C  0.20914380  0.99658130  0.47991043     0.20700
C258        C  0.30924608  0.98765849  0.50337451    -0.54200
C259        C  0.27549484  0.00236372  0.45805613     0.09800
C260        C  0.23849128  0.01872790  0.57579563    -0.53700
C261        C  0.20557857  0.03739854  0.53147557     0.10400
H262        H  0.23285917  0.87657505  0.58007979     0.14900
H263        H  0.17984608  0.00952186  0.44575828     0.00600
H264        H  0.35002396  0.96819801  0.49537779     0.15200
H265        H  0.23782308  0.03651994  0.61785814     0.15000
O266        O  0.92396277  0.01635092  0.39462316    -0.74100
O267        O  0.80647045  0.91418534  0.35295046    -0.74200
O268        O  0.91984709  0.90175347  0.38513054    -0.74200
O269        O  0.82226175  0.03184766  0.35622262    -0.74300
O270        O  0.86369683  0.04479594  0.26543396    -0.74200
O271        O  0.95149079  0.90911436  0.29104035    -0.74200
O272        O  0.84164149  0.91818523  0.26074543    -0.74200
O273        O  0.97063038  0.02306046  0.30656111    -0.74200
Ni274      Ni  0.86588354  0.96478415  0.37481432     1.25400
Ni275      Ni  0.90675498  0.97501753  0.27628233     1.25400
C276        C  0.96962351  0.02937274  0.36205255     0.88000
C277        C  0.80767288  0.89260730  0.30445790     0.88000
C278        C  0.95752065  0.89085780  0.34408197     0.88000
C279        C  0.83820464  0.06582829  0.30915832     0.88200
N280        N  0.83824974  0.82108096  0.47940111    -0.03200
C281        C  0.88071985  0.79606335  0.51218333    -0.00600
C282        C  0.88927790  0.82717758  0.56051573    -0.23500
C283        C  0.85643770  0.87305872  0.55737365    -0.23700
C284        C  0.82428594  0.87019929  0.50880568    -0.00700
H285        H  0.92170152  0.82109632  0.59227403     0.13100
H286        H  0.85661383  0.90680592  0.58791505     0.13100
C287        C  0.99711446  0.26901113  0.57250603     0.86800
C288        C  0.04656306  0.22951403  0.57990509    -0.53500
C289        C  0.05985625  0.19648612  0.53485863     0.09700
C290        C  0.01347515  0.20068378  0.48764241     0.20700
C291        C  0.00629349  0.30306854  0.51104443    -0.54200
C292        C  0.01507524  0.26876367  0.46561516     0.09800
C293        C  0.94554545  0.22395975  0.56620057    -0.53700
C294        C  0.95229249  0.18707924  0.52293902     0.10400
H295        H  0.06852876  0.22795216  0.62011938     0.14900
H296        H  0.02258959  0.17254185  0.45224411     0.00600
H297        H  0.99838770  0.34989018  0.50404679     0.15200
H298        H  0.90749362  0.21752066  0.59689014     0.15000
N299        N  0.86472970  0.12205881  0.49093801    -0.03200
C300        C  0.90878737  0.13323832  0.52691541    -0.00600
C301        C  0.89380734  0.10251759  0.58156836    -0.23500
C302        C  0.83997112  0.07323078  0.58005565    -0.23700
C303        C  0.82280377  0.08304082  0.52364721    -0.00700
H304        H  0.91841829  0.10409491  0.62010339     0.13100
H305        H  0.81879780  0.04179637  0.61487307     0.13100
N306        N  0.12155133  0.84818139  0.47519736    -0.03200
C307        C  0.14233206  0.88767679  0.51343728    -0.00600
C308        C  0.11825434  0.86848764  0.56952573    -0.23500
C309        C  0.08468120  0.81669069  0.56739033    -0.23700
C310        C  0.08647390  0.80445991  0.50983429    -0.00700
H311        H  0.12667409  0.88901149  0.60920470     0.13100
H312        H  0.05719194  0.79325939  0.60354712     0.13100
N313        N  0.35410728  0.00214556  0.64091536    -0.03200
C314        C  0.32227057  0.96103562  0.61099557    -0.00600
C315        C  0.34008617  0.90469767  0.62319122    -0.23500
C316        C  0.38244718  0.90896051  0.66101036    -0.23700
C317        C  0.39171114  0.96811303  0.67279040    -0.00700
H318        H  0.32574291  0.86431311  0.60463029     0.13100
H319        H  0.40560918  0.87174969  0.67803291     0.13100
N320        N  0.03015053  0.33579620  0.65592546    -0.03200
C321        C  0.99768481  0.35849324  0.70092517    -0.00600
C322        C  0.93891928  0.34407147  0.69550576    -0.23500
C323        C  0.93347022  0.31418496  0.64775304    -0.23700
C324        C  0.98868927  0.30778549  0.62398631    -0.00700
H325        H  0.90200838  0.35939647  0.71922242     0.13100
H326        H  0.89216636  0.30108213  0.63108504     0.13100
N327        N  0.13467523  0.11975701  0.50654267    -0.03200
C328        C  0.11648438  0.16552362  0.53637707    -0.00600
C329        C  0.15530020  0.17564640  0.57874416    -0.23500
C330        C  0.19344759  0.13313537  0.57843640    -0.23700
C331        C  0.17912210  0.09663731  0.53548956    -0.00700
H332        H  0.15586218  0.20872039  0.60966346     0.13100
H333        H  0.22621647  0.12896096  0.60965761     0.13100
N334        N  0.63516700  0.99803796  0.38342977    -0.03200
C335        C  0.64669215  0.97152419  0.43762362    -0.00600
C336        C  0.60825267  0.92238260  0.45502047    -0.23500
C337        C  0.57157673  0.91633355  0.41156191    -0.23700
C338        C  0.58708274  0.96232110  0.36794468    -0.00700
H339        H  0.60961256  0.89141819  0.49387182     0.13100
H340        H  0.53645665  0.88170993  0.41170071     0.13100
N341        N  0.01504005  0.60790634  0.37055396    -0.03200
C342        C  0.97862504  0.62469024  0.41588600    -0.00600
C343        C  0.92810794  0.58688933  0.42201896    -0.23500
C344        C  0.93157224  0.54789114  0.38023657    -0.23700
C345        C  0.98413879  0.56128686  0.34774328    -0.00700
H346        H  0.89100851  0.58887718  0.45277095     0.13100
H347        H  0.89732618  0.51488219  0.37206246     0.13100
N348        N  0.64923240  0.37328234  0.95606861    -0.03200
C349        C  0.66533867  0.42254393  0.98586374    -0.00600
C350        C  0.62755484  0.42076853  0.03530926    -0.23500
C351        C  0.58816456  0.37245186  0.03660745    -0.23700
C352        C  0.60081269  0.34310327  0.98806909    -0.00700
H353        H  0.63196200  0.44753983  0.07116119     0.13100
H354        H  0.55577093  0.35766740  0.07210645     0.13100
N355        N  0.54258511  0.11959454  0.15471635    -0.03200
C356        C  0.50215334  0.08035026  0.19090910    -0.00600
C357        C  0.44893129  0.07979864  0.16734990    -0.23500
C358        C  0.45556838  0.11326902  0.11481357    -0.23700
C359        C  0.51190117  0.14111684  0.10615604    -0.00700
H360        H  0.41069793  0.05027062  0.18257921     0.13100
H361        H  0.42154778  0.11576358  0.08445895     0.13100
N362        N  0.37459605  0.58845507  0.00626577    -0.03200
C363        C  0.40768515  0.61634009  0.04582456    -0.00600
C364        C  0.40291935  0.58108312  0.09891432    -0.23500
C365        C  0.36570280  0.53251411  0.09357858    -0.23700
C366        C  0.34720359  0.53779617  0.03732243    -0.00700
H367        H  0.42358276  0.59035411  0.13846272     0.13100
H368        H  0.35076019  0.49826731  0.12867844     0.13100
N369        N  0.12331398  0.46635497  0.13507971    -0.03200
C370        C  0.09479730  0.44752840  0.18792517    -0.00600
C371        C  0.11521927  0.39378097  0.20779130    -0.23500
C372        C  0.15738404  0.38071715  0.16579990    -0.23700
C373        C  0.16182813  0.42664555  0.12019700    -0.00700
H374        H  0.09934875  0.36533663  0.24678716     0.13100
H375        H  0.18157747  0.34153569  0.16926384     0.13100
N376        N  0.02114098  0.33847306  0.36992295    -0.03200
C377        C  0.97792793  0.36569901  0.34036980    -0.00600
C378        C  0.92538879  0.33341256  0.35928481    -0.23500
C379        C  0.93650396  0.28845724  0.40053430    -0.23700
C380        C  0.99487529  0.29213723  0.40745505    -0.00700
H381        H  0.88210979  0.34389489  0.34868639     0.13100
H382        H  0.90497594  0.26157763  0.42970096     0.13100
N383        N  0.34804598  0.01355520  0.36757656    -0.03200
C384        C  0.37919727  0.96915706  0.34581532    -0.00600
C385        C  0.34643792  0.91507186  0.36288495    -0.23500
C386        C  0.29690315  0.92568543  0.39407147    -0.23700
C387        C  0.29929983  0.98589765  0.39980247    -0.00700
H388        H  0.35883706  0.87051281  0.35765672     0.13100
H389        H  0.26748670  0.89129640  0.41865549     0.13100
N390        N  0.37412865  0.32882752  0.97949427    -0.03200
C391        C  0.34202536  0.35573652  0.02121223    -0.00600
C392        C  0.37030820  0.35571909  0.07225659    -0.23500
C393        C  0.42058328  0.32902801  0.06339351    -0.23700
C394        C  0.42236411  0.31012094  0.00749001    -0.00700
H395        H  0.35685269  0.37563109  0.11141600     0.13100
H396        H  0.45153823  0.32095799  0.09622912     0.13100
C397        C  0.10216499  0.09037925  0.46612437    -0.05800
C398        C  0.06012784  0.04706263  0.48965317    -0.17000
C399        C  0.02114014  0.02218401  0.45444424     0.11400
C400        C  0.02005844  0.04618442  0.39464248    -0.05800
C401        C  0.06646099  0.08526173  0.36943379    -0.17000
C402        C  0.10928609  0.10572413  0.40485469     0.11400
S403        S  0.97497221  0.95887717  0.48844443    -0.32000
S404        S  0.17268485  0.14733811  0.36936336    -0.32000
H405        H  0.20800288  0.14004048  0.41681922     0.29400
H406        H  0.01050546  0.94254462  0.53404805     0.29400
H407        H  0.05768477  0.03349511  0.53635388     0.20000
H408        H  0.06929374  0.09969489  0.32294242     0.20000
C409        C  0.01654207  0.87488686  0.35881830    -0.05800
C410        C  0.05774315  0.92280984  0.36244182    -0.17000
C411        C  0.11136420  0.91413287  0.38506413     0.11400
C412        C  0.11982329  0.85708566  0.41132016    -0.05800
C413        C  0.09316369  0.81038039  0.38246923    -0.17000
C414        C  0.03933625  0.81877648  0.35719389     0.11400
S415        S  0.17108596  0.95999519  0.34694317    -0.32000
S416        S  0.00344093  0.76056194  0.32152244    -0.32000
H417        H  0.05412227  0.73132134  0.31107458     0.29400
H418        H  0.20116717  0.91094259  0.33226515     0.29400
H419        H  0.05280022  0.96437418  0.33721800     0.20000
H420        H  0.10656561  0.76554751  0.39049705     0.20000
C421        C  0.84649416  0.13103653  0.31373519    -0.05800
C422        C  0.80403548  0.15623052  0.34755492    -0.17000
C423        C  0.81491623  0.16803053  0.40531364     0.11400
C424        C  0.86404122  0.14460708  0.42948503    -0.05800
C425        C  0.91237388  0.14377078  0.38953167    -0.17000
C426        C  0.90351635  0.14591003  0.32928572     0.11400
S427        S  0.79291704  0.23798685  0.42706298    -0.32000
S428        S  0.96430087  0.15728771  0.27553743    -0.32000
H429        H  0.92996501  0.15398123  0.22719925     0.29400
H430        H  0.81340981  0.22979227  0.48357612     0.29400
H431        H  0.76709046  0.17314223  0.32647183     0.20000
H432        H  0.95482638  0.13845525  0.40428087     0.20000
C433        C  0.78448655  0.82852801  0.31049960    -0.05800
C434        C  0.73980302  0.81297924  0.35597963    -0.17000
C435        C  0.75571776  0.80013795  0.41478984     0.11400
C436        C  0.81574737  0.80229355  0.42504049    -0.05800
C437        C  0.85308072  0.79175272  0.37660655    -0.17000
C438        C  0.83231656  0.79511485  0.31979927     0.11400
S439        S  0.70131985  0.78450010  0.47529122    -0.32000
S440        S  0.87603408  0.77603272  0.25870165    -0.32000
H441        H  0.83560553  0.79044762  0.21710253     0.29400
H442        H  0.65317515  0.79267470  0.44150721     0.29400
H443        H  0.69525835  0.82087181  0.34756361     0.20000
H444        H  0.89851793  0.78738957  0.38090775     0.20000
C445        C  0.41635495  0.19337169  0.37717322    -0.05800
C446        C  0.44826027  0.14496931  0.36903514    -0.17000
C447        C  0.42130900  0.08813545  0.38761678     0.11400
C448        C  0.36793510  0.07557356  0.36783928    -0.05800
C449        C  0.33488081  0.12468026  0.35281757    -0.17000
C450        C  0.35920545  0.18444325  0.35798640     0.11400
S451        S  0.42673166  0.05452027  0.46144243    -0.32000
S452        S  0.34055155  0.23967356  0.30239381    -0.32000
H453        H  0.37712936  0.28641343  0.32017527     0.29400
H454        H  0.43659205  0.99811306  0.44320586     0.29400
H455        H  0.49348354  0.15265970  0.36928280     0.20000
H456        H  0.29377794  0.11715118  0.33341684     0.20000
C457        C  0.62925284  0.18611327  0.39152171    -0.05800
C458        C  0.60619977  0.15759865  0.34506506    -0.17000
C459        C  0.59912102  0.09439668  0.35447680     0.11400
C460        C  0.64674651  0.06336139  0.36818084    -0.05800
C461        C  0.68743001  0.09776966  0.39826226    -0.17000
C462        C  0.67238837  0.15312955  0.41892505     0.11400
S463        S  0.54661643  0.06487180  0.41260840    -0.32000
S464        S  0.68895948  0.16342346  0.49267990    -0.32000
H465        H  0.67929368  0.22437555  0.48937570     0.29400
H466        H  0.58126983  0.06836821  0.46090456     0.29400
H467        H  0.57463388  0.17995410  0.31996494     0.20000
H468        H  0.72388173  0.07737007  0.41571802     0.20000
C469        C  0.62476407  0.05587011  0.63671279    -0.05800
C470        C  0.67275124  0.09906243  0.63610760    -0.17000
C471        C  0.66348861  0.16088216  0.63406719     0.11400
C472        C  0.60595530  0.17899659  0.63868306    -0.05800
C473        C  0.56384146  0.13334700  0.66268603    -0.17000
C474        C  0.56914080  0.07702208  0.64181109     0.11400
S475        S  0.72507300  0.21526587  0.62129725    -0.32000
S476        S  0.51561096  0.05289436  0.59262961    -0.32000
H477        H  0.55091947  0.01394366  0.56520953     0.29400
H478        H  0.69178817  0.26506316  0.62176611     0.29400
H479        H  0.71666710  0.08527581  0.63505135     0.20000
H480        H  0.52000205  0.14608911  0.67065379     0.20000
C481        C  0.36902466  0.19387916  0.62114757    -0.05800
C482        C  0.36483282  0.16275334  0.67806492    -0.17000
C483        C  0.34890590  0.10016240  0.68631452     0.11400
C484        C  0.34982462  0.06729260  0.63682681    -0.05800
C485        C  0.34208286  0.10119825  0.58309771    -0.17000
C486        C  0.33898552  0.16344904  0.58039356     0.11400
S487        S  0.32374549  0.06589501  0.75842683    -0.32000
S488        S  0.31296994  0.20313583  0.51677159    -0.32000
H489        H  0.32430539  0.26003584  0.53586198     0.29400
H490        H  0.29740854  0.01348809  0.73963855     0.29400
H491        H  0.37516994  0.18658996  0.71528510     0.20000
H492        H  0.33748697  0.08103500  0.54342457     0.20000
C493        C  0.20136172  0.62412198  0.36553289    -0.05800
C494        C  0.16755783  0.65043073  0.40731181    -0.17000
C495        C  0.10825594  0.63017119  0.41372301     0.11400
C496        C  0.07800570  0.62171710  0.36382598    -0.05800
C497        C  0.11245716  0.61685196  0.31147898    -0.17000
C498        C  0.17410909  0.61574461  0.31294443     0.11400
S499        S  0.08581722  0.58264141  0.48007323    -0.32000
S500        S  0.21599841  0.59431777  0.25109526    -0.32000
H501        H  0.27032080  0.60281256  0.27513944     0.29400
H502        H  0.03484216  0.55130331  0.46699883     0.29400
H503        H  0.18776688  0.65970887  0.44716438     0.20000
H504        H  0.09188543  0.60854546  0.27170110     0.20000
C505        C  0.20182095  0.39245666  0.36311379    -0.05800
C506        C  0.16037666  0.43043536  0.34380629    -0.17000
C507        C  0.10341614  0.41322207  0.36635239     0.11400
C508        C  0.08279810  0.35451761  0.36541049    -0.05800
C509        C  0.12450602  0.31186615  0.36345232    -0.17000
C510        C  0.18421246  0.33099459  0.36593424     0.11400
S511        S  0.06639950  0.46066489  0.41226709    -0.32000
S512        S  0.23574922  0.27752834  0.37934105    -0.32000
H513        H  0.28372618  0.31950254  0.38123363     0.29400
H514        H  0.01522728  0.42427247  0.42886843     0.29400
H515        H  0.17312303  0.47745275  0.33467836     0.20000
H516        H  0.11064399  0.26481000  0.36514312     0.20000
C517        C  0.21943015  0.60797334  0.59852470    -0.05800
C518        C  0.18581303  0.56225112  0.63368281    -0.17000
C519        C  0.12555226  0.55981202  0.62845114     0.11400
C520        C  0.09765736  0.61312221  0.62325362    -0.05800
C521        C  0.13336024  0.66611152  0.60629929    -0.17000
C522        C  0.19354481  0.66321910  0.59006031     0.11400
S523        S  0.09415138  0.49597463  0.59678548    -0.32000
S524        S  0.23363514  0.72788284  0.55112939    -0.32000
H525        H  0.28704208  0.70164516  0.54744947     0.29400
H526        H  0.04243708  0.52055078  0.58117019     0.29400
H527        H  0.20465566  0.52001534  0.64281346     0.20000
H528        H  0.11413163  0.70813070  0.60176720     0.20000
C529        C  0.21632657  0.36269488  0.60643675    -0.05800
C530        C  0.19541448  0.36101455  0.66609780    -0.17000
C531        C  0.13677141  0.33779575  0.68404353     0.11400
C532        C  0.09416924  0.34166525  0.64178090    -0.05800
C533        C  0.11789573  0.34090677  0.58381286    -0.17000
C534        C  0.17730604  0.33327501  0.57309361     0.11400
S535        S  0.12776407  0.27886674  0.74378268    -0.32000
S536        S  0.20435823  0.30054319  0.51083191    -0.32000
H537        H  0.14950715  0.28784338  0.48944972     0.29400
H538        H  0.07048073  0.25890020  0.73340629     0.29400
H539        H  0.22692200  0.36730989  0.69835835     0.20000
H540        H  0.09207465  0.34420122  0.54731549     0.20000
C541        C  0.60031534  0.14349800  0.17106122    -0.05800
C542        C  0.61328126  0.20576466  0.16767785    -0.17000
C543        C  0.67190644  0.23041177  0.15793703     0.11400
C544        C  0.71569308  0.19169300  0.14520301    -0.05800
C545        C  0.70595884  0.13621834  0.17790288    -0.17000
C546        C  0.64840956  0.10952024  0.18759152     0.11400
S547        S  0.68636923  0.30993433  0.14343232    -0.32000
S548        S  0.64428249  0.03592201  0.22376612    -0.32000
H549        H  0.60827152  0.01591602  0.18351406     0.29400
H550        H  0.74652407  0.30806265  0.12997843     0.29400
H551        H  0.57809776  0.23495904  0.16713782     0.20000
H552        H  0.74220228  0.10878353  0.18365337     0.20000
C553        C  0.60703084  0.14776275  0.82752742    -0.05800
C554        C  0.62729585  0.20905090  0.82028424    -0.17000
C555        C  0.68789427  0.22644903  0.81980153     0.11400
C556        C  0.72336403  0.18568978  0.84606789    -0.05800
C557        C  0.71097025  0.12845932  0.83027190    -0.17000
C558        C  0.65291206  0.10855730  0.82197714     0.11400
S559        S  0.72242617  0.27187070  0.75704629    -0.32000
S560        S  0.64801073  0.04070952  0.79074985    -0.32000
H561        H  0.61202157  0.06546258  0.75029117     0.29400
H562        H  0.77962707  0.26921704  0.77476222     0.29400
H563        H  0.59676252  0.24163826  0.80955408     0.20000
H564        H  0.74402238  0.09678540  0.83322049     0.20000
C565        C  0.62881725  0.97513914  0.09114581    -0.05800
C566        C  0.65415571  0.92848161  0.12301119    -0.17000
C567        C  0.61939237  0.87643513  0.14527740     0.11400
C568        C  0.56115852  0.86960443  0.12974478    -0.05800
C569        C  0.54148762  0.90976268  0.08886943    -0.17000
C570        C  0.57133954  0.96431093  0.07451516     0.11400
S571        S  0.64979587  0.82260413  0.19526637    -0.32000
S572        S  0.52697930  0.02143612  0.05032268    -0.32000
H573        H  0.47063382  0.99251882  0.06009658     0.29400
H574        H  0.60247647  0.77912556  0.19953378     0.29400
H575        H  0.69855677  0.93490631  0.13537687     0.20000
H576        H  0.49578975  0.90584257  0.08282553     0.20000
C577        C  0.53632975  0.89609887  0.91871931    -0.05800
C578        C  0.59570872  0.88547069  0.91458930    -0.17000
C579        C  0.63898581  0.93169317  0.92030178     0.11400
C580        C  0.62168005  0.98984289  0.92526423    -0.05800
C581        C  0.56177366  0.99870453  0.92529226    -0.17000
C582        C  0.51956408  0.95200759  0.92874075     0.11400
S583        S  0.71456181  0.91621476  0.91877481    -0.32000
S584        S  0.44322338  0.96446421  0.94020841    -0.32000
H585        H  0.45102407  0.02460818  0.95116704     0.29400
H586        H  0.70658446  0.85852855  0.90060048     0.29400
H587        H  0.60784016  0.84187557  0.90542945     0.20000
H588        H  0.54649995  0.04232683  0.92650436     0.20000
C589        C  0.46806583  0.40556215  0.83375347    -0.05800
C590        C  0.42904168  0.35746903  0.82276324    -0.17000
C591        C  0.38964926  0.33041482  0.86958283     0.11400
C592        C  0.38354532  0.35941576  0.92162005    -0.05800
C593        C  0.41075167  0.41599699  0.92155151    -0.17000
C594        C  0.46242904  0.42650825  0.89015043     0.11400
S595        S  0.34939515  0.26078569  0.86170995    -0.32000
S596        S  0.52292211  0.44441150  0.93437915    -0.32000
H597        H  0.49425256  0.43098679  0.99049393     0.29400
H598        H  0.31514194  0.25878912  0.91479165     0.29400
H599        H  0.43379399  0.33725572  0.78204752     0.20000
H600        H  0.40661138  0.43860672  0.96089032     0.20000
C601        C  0.43441359  0.60066853  0.82665197    -0.05800
C602        C  0.45861347  0.63554667  0.86690479    -0.17000
C603        C  0.44635960  0.61109683  0.92421154     0.11400
C604        C  0.38883926  0.59561605  0.94360967    -0.05800
C605        C  0.35174931  0.57804199  0.90033987    -0.17000
C606        C  0.37726591  0.57296217  0.84290949     0.11400
S607        S  0.50462536  0.57797238  0.96137195    -0.32000
S608        S  0.34069337  0.52421573  0.79702763    -0.32000
H609        H  0.38407181  0.53239761  0.75057873     0.29400
H610        H  0.46942248  0.53425796  0.99782805     0.29400
H611        H  0.50243228  0.65602409  0.85650156     0.20000
H612        H  0.30678795  0.56243739  0.91197897     0.20000
C613        C  0.64954178  0.68550074  0.92861248    -0.05800
C614        C  0.60821482  0.71623803  0.89715430    -0.17000
C615        C  0.61201888  0.72113532  0.83527800     0.11400
C616        C  0.65230972  0.68813831  0.80658399    -0.05800
C617        C  0.70356584  0.68349395  0.83564546    -0.17000
C618        C  0.70244626  0.68213257  0.89704062     0.11400
S619        S  0.56094308  0.76180680  0.79495187    -0.32000
S620        S  0.76854569  0.69278208  0.93199406    -0.32000
H621        H  0.74291457  0.70621335  0.98589221     0.29400
H622        H  0.58753596  0.75463660  0.73952474     0.29400
H623        H  0.57580803  0.73883757  0.91879827     0.20000
H624        H  0.73970199  0.66819892  0.81316137     0.20000
C625        C  0.69711567  0.41557961  0.78228242    -0.05800
C626        C  0.74222236  0.41000169  0.82104707    -0.17000
C627        C  0.72949840  0.38025664  0.87801745     0.11400
C628        C  0.67146896  0.36390629  0.89716309    -0.05800
C629        C  0.63437705  0.35036062  0.85312266    -0.17000
C630        C  0.65118826  0.37046346  0.79381491     0.11400
S631        S  0.78288735  0.34195350  0.91677412    -0.32000
S632        S  0.60608761  0.34989821  0.73614272    -0.32000
H633        H  0.64509043  0.37749966  0.69025710     0.29400
H634        H  0.82583633  0.35043995  0.86983804     0.29400
H635        H  0.78619909  0.42741046  0.80679912     0.20000
H636        H  0.59162607  0.32921682  0.86396236     0.20000
C637        C  0.05276140  0.61728349  0.06307108    -0.05800
C638        C  0.04897893  0.56450438  0.03454693    -0.17000
C639        C  0.07255340  0.51387085  0.05602490     0.11400
C640        C  0.11067374  0.51848171  0.10085464    -0.05800
C641        C  0.12233975  0.57339204  0.12369592    -0.17000
C642        C  0.09171050  0.62264267  0.10718007     0.11400
S643        S  0.03668114  0.44472869  0.03600290    -0.32000
S644        S  0.10065202  0.68696369  0.14716477    -0.32000
H645        H  0.09138415  0.72874120  0.10008782     0.29400
H646        H  0.05641868  0.40480240  0.07950846     0.29400
H647        H  0.01976258  0.55907593  0.00012176     0.20000
H648        H  0.15012053  0.57524206  0.15953215     0.20000
C649        C  0.15235475  0.55240700  0.87863266    -0.05800
C650        C  0.15344741  0.57806746  0.93190929    -0.17000
C651        C  0.12991917  0.63323144  0.93552930     0.11400
C652        C  0.09447442  0.65349585  0.89146418    -0.05800
C653        C  0.10849515  0.63842349  0.83534184    -0.17000
C654        C  0.14419971  0.59191100  0.82895035     0.11400
S655        S  0.15836359  0.68322844  0.98511261    -0.32000
S656        S  0.18002186  0.58685521  0.75908928    -0.32000
H657        H  0.22194609  0.54968771  0.77981233     0.29400
H658        H  0.13844804  0.73490511  0.95622719     0.29400
H659        H  0.17382933  0.55794933  0.96895272     0.20000
H660        H  0.09124836  0.66037244  0.79731351     0.20000
C661        C  0.85275737  0.58695619  0.15498181    -0.05800
C662        C  0.90401989  0.62504591  0.15357305    -0.17000
C663        C  0.90101336  0.68698990  0.14153740     0.11400
C664        C  0.85327601  0.70602530  0.11149307    -0.05800
C665        C  0.79981274  0.67355097  0.13074883    -0.17000
C666        C  0.80003967  0.61432347  0.15754072     0.11400
S667        S  0.96350545  0.73745846  0.14900817    -0.32000
S668        S  0.73532202  0.57369365  0.19393815    -0.32000
H669        H  0.69853966  0.61983696  0.18241680     0.29400
H670        H  0.93623307  0.78937647  0.13146448     0.29400
H671        H  0.94600572  0.60749636  0.15750418     0.20000
H672        H  0.75925015  0.69162482  0.11987915     0.20000
C673        C  0.89648356  0.58939894  0.82438262    -0.05800
C674        C  0.94953788  0.62584823  0.81061869    -0.17000
C675        C  0.94806772  0.68824583  0.79470583     0.11400
C676        C  0.89732795  0.71426702  0.81174879    -0.05800
C677        C  0.84874080  0.67960043  0.79561822    -0.17000
C678        C  0.84624196  0.61605451  0.80599217     0.11400
S679        S  0.01176947  0.73491282  0.76622204    -0.32000
S680        S  0.78615723  0.57090404  0.78337918    -0.32000
H681        H  0.81958028  0.52357553  0.77088980     0.29400
H682        H  0.98347695  0.78817573  0.76187068     0.29400
H683        H  0.99047300  0.60855906  0.81521758     0.20000
H684        H  0.81840088  0.70185232  0.76893970     0.20000
loop_ 
_geom_bond_atom_site_label_1 
_geom_bond_atom_site_label_2 
_geom_bond_distance 
_geom_bond_site_symmetry_2 
_ccdc_geom_bond_type 
C1            C2   1.573       .  S
C1            C7   1.530       .  S
C1            C5   1.513   1_554  S
C1          C119   1.590       .  S
C2            H9   1.087       .  S
C2            C3   1.366   1_554  D
C3            C4   1.568       .  S
C3          C349   1.557       .  S
C4            C8   1.603       .  S
C4            C6   1.625       .  S
C4           H10   1.107       .  S
C5           H11   1.090       .  S
C5            C6   1.372       .  D
C6          C100   1.541       .  S
C7           H12   1.061       .  S
C7            C8   1.382   1_554  D
C8          C147   1.550   1_556  S
C13          C14   1.538       .  S
C13          C19   1.542       .  S
C13          C17   1.552       .  S
C13         C199   1.548       .  S
C14          H21   1.086       .  S
C14          C15   1.368       .  D
C15          C16   1.551   1_554  S
C15         C150   1.505       .  S
C16          C20   1.572   1_556  S
C16          C18   1.540       .  S
C16          H22   1.068       .  S
C17          H23   1.075       .  S
C17          C18   1.364   1_554  D
C18         C180   1.506       .  S
C19          H24   1.079       .  S
C19          C20   1.363       .  D
C20         C363   1.541       .  S
C25          C26   1.540   1_455  S
C25          C31   1.514       .  S
C25          C29   1.500       .  S
C25         C321   1.552   1_455  S
C26          H33   1.084       .  S
C26          C27   1.374       .  D
C27          C28   1.563   1_655  S
C27         C103   1.507       .  S
C28          C32   1.588       .  S
C28          C30   1.568       .  S
C28          H34   1.074       .  S
C29          H35   1.087   1_455  S
C29          C30   1.366       .  D
C30         C230   1.510       .  S
C31          H36   1.060       .  S
C31          C32   1.367       .  D
C32         C126   1.562       .  S
C37          C38   1.564   1_565  S
C37          C43   1.531       .  S
C37          C41   1.537       .  S
C37         C317   1.578       .  S
C38          H45   1.071       .  S
C38          C39   1.396       .  D
C39          C40   1.595   1_545  S
C39         C209   1.572       .  S
C40          C44   1.581       .  S
C40          C42   1.564       .  S
C40          H46   1.092       .  S
C41          H47   1.086       .  S
C41          C42   1.351       .  D
C42         C251   1.510       .  S
C43          H48   1.085       .  S
C43          C44   1.358       .  D
C44         C183   1.544       .  S
C49          C50   1.513       .  S
C49          C55   1.546       .  S
C49          C53   1.536       .  S
C49         C284   1.558       .  S
C50          H57   1.065       .  S
C50          C51   1.365       .  D
C51          C52   1.579   1_565  S
C51         C335   1.485       .  S
C52          C56   1.558   1_545  S
C52          C54   1.584       .  S
C52          H58   1.098       .  S
C53          H59   1.077       .  S
C53          C54   1.365   1_565  D
C54         C303   1.512       .  S
C55          H60   1.082       .  S
C55          C56   1.365       .  D
C56         C248   1.547       .  S
C61          C62   1.544       .  S
C61          C67   1.526       .  S
C61          C65   1.518       .  S
C61         C281   1.548       .  S
C62          H69   1.084       .  S
C62          C63   1.372       .  D
C63          C64   1.557   1_655  S
C63         C227   1.545       .  S
C64          C68   1.614   1_455  S
C64          C66   1.556       .  S
C64          H70   1.082       .  S
C65          H71   1.079       .  S
C65          C66   1.344   1_655  D
C66         C310   1.501       .  S
C67          H72   1.083       .  S
C67          C68   1.388       .  D
C68         C342   1.548       .  S
C73          C74   1.530       .  S
C73          C79   1.545       .  S
C73          C77   1.536       .  S
C73         C373   1.563       .  S
C74          H81   1.087       .  S
C74          C75   1.374       .  D
C75          C76   1.556   1_554  S
C75         C366   1.510       .  S
C76          C80   1.571   1_556  S
C76          C78   1.562       .  S
C76          H82   1.095       .  S
C77          H83   1.064   1_554  S
C77          C78   1.362   1_554  D
C78         C129   1.509       .  S
C79          H84   1.083       .  S
C79          C80   1.375       .  D
C80         C391   1.526       .  S
O85         Ni93   1.957       .  S
O85          C95   1.293   1_655  A
O86         Ni93   1.895   1_554  S
O86          C96   1.275       .  A
O87         Ni93   1.834       .  S
O87          C97   1.263       .  A
O88         Ni93   1.835   1_554  S
O88          C98   1.261   1_655  A
O89         Ni94   1.949   1_454  S
O89          C98   1.287       .  A
O90         Ni94   1.965       .  S
O90          C97   1.294       .  A
O91         Ni94   1.950   1_554  S
O91          C96   1.288       .  A
O92         Ni94   1.894   1_455  S
O92          C95   1.270       .  A
Ni93        Ni94   2.380       .  S
C95         C652   1.476       .  S
C96         C664   1.488       .  S
C97         C676   1.492       .  S
C98         C637   1.461       .  S
N99         C103   1.390       .  A
N99         C100   1.399       .  A
N99         C673   1.470       .  S
C100        C101   1.388       .  A
C101        C102   1.352       .  A
C101        H104   1.080       .  S
C102        C103   1.372       .  A
C102        H105   1.083       .  S
C106        C107   1.529       .  S
C106        C112   1.558       .  S
C106        C110   1.522       .  S
C106        C122   1.559       .  S
C107        H114   1.085       .  S
C107        C108   1.380       .  D
C108        C109   1.585   1_655  S
C108        C345   1.532       .  S
C109        C113   1.570   1_455  S
C109        C111   1.551       .  S
C109        H115   1.073       .  S
C110        H116   1.068       .  S
C110        C111   1.356   1_655  D
C111        C370   1.527       .  S
C112        H117   1.083       .  S
C112        C113   1.384       .  D
C113        C377   1.553       .  S
N118        C122   1.391       .  A
N118        C119   1.398       .  A
N118        C661   1.452       .  S
C119        C120   1.391       .  A
C120        C121   1.347       .  A
C120        H123   1.082       .  S
C121        C122   1.378       .  A
C121        H124   1.083       .  S
N125        C129   1.382       .  A
N125        C126   1.381       .  A
N125        C649   1.450       .  S
C126        C127   1.395       .  A
C127        C128   1.370       .  A
C127        H130   1.074       .  S
C128        C129   1.371       .  A
C128        H131   1.083       .  S
O132       Ni140   1.972       .  S
O132        C142   1.295       .  A
O133       Ni140   1.927       .  S
O133        C143   1.277       .  A
O134       Ni140   1.980       .  S
O134        C144   1.299       .  A
O135       Ni140   1.984       .  S
O135        C145   1.288       .  A
O136       Ni141   1.863       .  S
O136        C145   1.243       .  A
O137       Ni141   1.841       .  S
O137        C144   1.267       .  A
O138       Ni141   1.908       .  S
O138        C143   1.277       .  A
O139       Ni141   1.878       .  S
O139        C142   1.270       .  A
Ni140      Ni141   2.332       .  S
C142        C625   1.484       .  S
C143        C601   1.472       .  S
C144        C616   1.475       .  S
C145        C589   1.475       .  S
N146        C150   1.384   1_556  A
N146        C147   1.401   1_556  A
N146        C613   1.466       .  S
C147        C148   1.391       .  A
C148        C149   1.357       .  A
C148        H151   1.076       .  S
C149        C150   1.372       .  A
C149        H152   1.083       .  S
C153        C154   1.542       .  S
C153        C159   1.553       .  S
C153        C157   1.552   1_554  S
C153        C359   1.640       .  S
C154        H161   1.087       .  S
C154        C155   1.361   1_554  D
C155        C156   1.581       .  S
C155        C394   1.549   1_556  S
C156        C160   1.576       .  S
C156        C158   1.598       .  S
C156        H162   1.104       .  S
C157        H163   1.054       .  S
C157        C158   1.372       .  D
C158        C206   1.555       .  S
C159        H164   1.064       .  S
C159        C160   1.392   1_554  D
C160        C352   1.534       .  S
O165       Ni173   1.848   1_556  S
O165        C175   1.270       .  A
O166       Ni173   1.848       .  S
O166        C176   1.259       .  A
O167       Ni173   1.870   1_556  S
O167        C177   1.269       .  A
O168       Ni173   1.906       .  S
O168        C178   1.282       .  A
O169       Ni174   1.893       .  S
O169        C178   1.272       .  A
O170       Ni174   1.939   1_556  S
O170        C177   1.289       .  A
O171       Ni174   1.970       .  S
O171        C176   1.295       .  A
O172       Ni174   1.943   1_556  S
O172        C175   1.286       .  A
Ni173      Ni174   2.384       .  S
C175        C580   1.484   1_545  S
C176        C544   1.490       .  S
C177        C556   1.473       .  S
C178        C565   1.479   1_545  S
N179        C183   1.365       .  A
N179        C180   1.363       .  A
N179        C577   1.416       .  S
C180        C181   1.378       .  A
C181        C182   1.383       .  A
C181        H184   1.082       .  S
C182        C183   1.394       .  A
C182        H185   1.081       .  S
C186        C187   1.521       .  S
C186        C192   1.517       .  S
C186        C190   1.529       .  S
C186        C202   1.560       .  S
C187        H194   1.082       .  S
C187        C188   1.363       .  D
C188        C189   1.604   1_565  S
C188        C384   1.570       .  S
C189        C193   1.607   1_545  S
C189        C191   1.578       .  S
C189        H195   1.089       .  S
C190        H196   1.064       .  S
C190        C191   1.381   1_565  D
C191        C356   1.534       .  S
C192        H197   1.088       .  S
C192        C193   1.366       .  D
C193        C338   1.535       .  S
N198        C202   1.362       .  A
N198        C199   1.362       .  A
N198        C568   1.419       .  S
C199        C200   1.390       .  A
C200        C201   1.370       .  A
C200        H203   1.078       .  S
C201        C202   1.387       .  A
C201        H204   1.082       .  S
N205        C209   1.419       .  A
N205        C206   1.415       .  A
N205        C553   1.490       .  S
C206        C207   1.372       .  A
C207        C208   1.361       .  A
C207        H210   1.082       .  S
C208        C209   1.385       .  A
C208        H211   1.079       .  S
O212       Ni220   1.861       .  S
O212        C222   1.256       .  A
O213       Ni220   1.867       .  S
O213        C223   1.272       .  A
O214       Ni220   1.877       .  S
O214        C224   1.256       .  A
O215       Ni220   1.856       .  S
O215        C225   1.263       .  A
O216       Ni221   1.986       .  S
O216        C225   1.295       .  A
O217       Ni221   1.995       .  S
O217        C224   1.295       .  A
O218       Ni221   1.961       .  S
O218        C223   1.288       .  A
O219       Ni221   1.969       .  S
O219        C222   1.288       .  A
Ni220      Ni221   2.299       .  S
C222        C517   1.469       .  S
C223        C505   1.476       .  S
C224        C529   1.493       .  S
C225        C493   1.484       .  S
N226        C230   1.388       .  A
N226        C227   1.392   1_455  A
N226        C520   1.459       .  S
C227        C228   1.393       .  A
C228        C229   1.354       .  A
C228        H231   1.081       .  S
C229        C230   1.370   1_655  A
C229        H232   1.081       .  S
O233       Ni241   1.819       .  S
O233        C243   1.249       .  A
O234       Ni241   1.868       .  S
O234        C244   1.262       .  A
O235       Ni241   1.897       .  S
O235        C245   1.269       .  A
O236       Ni241   1.851       .  S
O236        C246   1.258       .  A
O237       Ni242   1.987       .  S
O237        C246   1.292       .  A
O238       Ni242   2.001       .  S
O238        C245   1.296       .  A
O239       Ni242   1.990       .  S
O239        C244   1.298       .  A
O240       Ni242   1.997       .  S
O240        C243   1.291       .  A
Ni241      Ni242   2.280       .  S
C243        C457   1.505       .  S
C244        C481   1.483       .  S
C245        C445   1.515       .  S
C246        C472   1.484       .  S
N247        C251   1.386       .  A
N247        C248   1.379       .  A
N247        C469   1.460   1_565  S
C248        C249   1.399       .  A
C249        C250   1.369       .  A
C249        H252   1.080       .  S
C250        C251   1.367       .  A
C250        H253   1.082       .  S
C254        C255   1.537       .  S
C254        C260   1.499   1_565  S
C254        C258   1.512       .  S
C254        C314   1.545       .  S
C255        H262   1.085       .  S
C255        C256   1.385       .  D
C256        C257   1.586       .  S
C256        C307   1.527       .  S
C257        C261   1.571   1_565  S
C257        C259   1.574   1_565  S
C257        H263   1.099   1_565  S
C258        H264   1.081       .  S
C258        C259   1.368   1_565  D
C259        C387   1.506   1_545  S
C260        H265   1.081       .  S
C260        C261   1.361       .  D
C261        C331   1.519       .  S
O266       Ni274   1.817   1_545  S
O266        C276   1.253       .  A
O267       Ni274   1.843       .  S
O267        C277   1.258       .  A
O268       Ni274   1.966       .  S
O268        C278   1.297       .  A
O269       Ni274   1.909   1_545  S
O269        C279   1.281       .  A
O270       Ni275   1.928   1_545  S
O270        C279   1.281       .  A
O271       Ni275   1.889       .  S
O271        C278   1.268       .  A
O272       Ni275   1.974       .  S
O272        C277   1.296       .  A
O273       Ni275   1.966   1_545  S
O273        C276   1.295       .  A
Ni274      Ni275   2.381       .  S
C276        C400   1.468   1_655  S
C277        C433   1.495       .  S
C278        C409   1.485   1_655  S
C279        C421   1.484       .  S
N280        C284   1.400       .  A
N280        C281   1.392       .  A
N280        C436   1.469       .  S
C281        C282   1.386       .  A
C282        C283   1.327       .  A
C282        H285   1.084       .  S
C283        C284   1.381       .  A
C283        H286   1.084       .  S
C287        C288   1.508   1_655  S
C287        C293   1.530       .  S
C287        C291   1.536   1_655  S
C287        C324   1.549       .  S
C288        H295   1.080       .  S
C288        C289   1.365       .  D
C289        C290   1.571       .  S
C289        C328   1.528       .  S
C290        C294   1.579   1_455  S
C290        C292   1.568       .  S
C290        H296   1.099       .  S
C291        H297   1.084   1_455  S
C291        C292   1.372       .  D
C292        C380   1.503   1_455  S
C293        H298   1.084       .  S
C293        C294   1.365       .  D
C294        C300   1.509       .  S
N299        C303   1.390       .  A
N299        C300   1.373       .  A
N299        C424   1.455       .  S
C300        C301   1.386       .  A
C301        C302   1.367       .  A
C301        H304   1.083       .  S
C302        C303   1.381       .  A
C302        H305   1.083       .  S
N306        C310   1.383       .  A
N306        C307   1.391       .  A
N306        C412   1.465       .  S
C307        C308   1.387       .  A
C308        C309   1.360       .  A
C308        H311   1.083       .  S
C309        C310   1.375       .  A
C309        H312   1.083       .  S
N313        C317   1.396   1_545  A
N313        C314   1.399   1_545  A
N313        C484   1.475       .  S
C314        C315   1.374       .  A
C315        C316   1.351       .  A
C315        H318   1.081       .  S
C316        C317   1.391       .  A
C316        H319   1.083       .  S
N320        C324   1.392   1_455  A
N320        C321   1.399   1_455  A
N320        C532   1.486       .  S
C321        C322   1.387       .  A
C322        C323   1.349       .  A
C322        H325   1.080       .  S
C323        C324   1.378       .  A
C323        H326   1.080       .  S
N327        C331   1.365       .  A
N327        C328   1.371       .  A
N327        C397   1.412       .  S
C328        C329   1.386       .  A
C329        C330   1.350       .  A
C329        H332   1.079       .  S
C330        C331   1.385       .  A
C330        H333   1.077       .  S
N334        C338   1.406       .  A
N334        C335   1.378       .  A
N334        C460   1.482   1_565  S
C335        C336   1.379       .  A
C336        C337   1.358       .  A
C336        H339   1.083       .  S
C337        C338   1.382       .  A
C337        H340   1.083       .  S
N341        C345   1.389   1_455  A
N341        C342   1.397   1_455  A
N341        C496   1.459       .  S
C342        C343   1.384       .  A
C343        C344   1.366       .  A
C343        H346   1.082       .  S
C344        C345   1.382       .  A
C344        H347   1.083       .  S
N348        C352   1.394       .  A
N348        C349   1.400       .  A
N348        C628   1.458       .  S
C349        C350   1.384   1_556  A
C350        C351   1.363       .  A
C350        H353   1.073       .  S
C351        C352   1.378   1_554  A
C351        H354   1.082       .  S
N355        C359   1.423       .  A
N355        C356   1.409       .  A
N355        C541   1.483       .  S
C356        C357   1.372       .  A
C357        C358   1.355       .  A
C357        H360   1.084       .  S
C358        C359   1.395       .  A
C358        H361   1.083       .  S
N362        C366   1.377       .  A
N362        C363   1.389       .  A
N362        C604   1.447   1_554  S
C363        C364   1.384       .  A
C364        C365   1.361       .  A
C364        H367   1.082       .  S
C365        C366   1.383       .  A
C365        H368   1.083       .  S
N369        C373   1.360       .  A
N369        C370   1.359       .  A
N369        C640   1.410       .  S
C370        C371   1.381       .  A
C371        C372   1.395       .  A
C371        H374   1.078       .  S
C372        C373   1.394       .  A
C372        H375   1.080       .  S
N376        C380   1.368   1_455  A
N376        C377   1.388   1_455  A
N376        C508   1.437       .  S
C377        C378   1.390       .  A
C378        C379   1.370       .  A
C378        H381   1.080       .  S
C379        C380   1.364       .  A
C379        H382   1.069       .  S
N383        C387   1.381   1_545  A
N383        C384   1.390   1_545  A
N383        C448   1.441       .  S
C384        C385   1.396       .  A
C385        C386   1.360       .  A
C385        H388   1.082       .  S
C386        C387   1.375       .  A
C386        H389   1.083       .  S
N390        C394   1.392   1_556  A
N390        C391   1.389   1_556  A
N390        C592   1.434       .  S
C391        C392   1.377       .  A
C392        C393   1.360       .  A
C392        H395   1.083       .  S
C393        C394   1.391       .  A
C393        H396   1.082       .  S
C397        C398   1.372       .  A
C397        C402   1.413       .  A
C398        C399   1.371       .  A
C398        H407   1.084       .  S
C399        C400   1.430       .  A
C399        S403   1.801   1_445  S
C400        C401   1.394       .  A
C401        C402   1.398       .  A
C401        H408   1.083       .  S
C402        S404   1.786       .  S
S403        H406   1.408   1_655  S
S404        H405   1.405       .  S
C409        C410   1.398       .  A
C409        C414   1.410       .  A
C410        C411   1.391       .  A
C410        H419   1.072       .  S
C411        C412   1.401       .  A
C411        S415   1.789       .  S
C412        C413   1.420       .  A
C413        C414   1.421       .  A
C413        H420   1.082       .  S
C414        S416   1.792       .  S
S415        H418   1.407       .  S
S416        H417   1.404       .  S
C421        C422   1.401       .  A
C421        C426   1.410       .  A
C422        C423   1.412       .  A
C422        H431   1.082       .  S
C423        C424   1.408       .  A
C423        S427   1.800       .  S
C424        C425   1.403       .  A
C425        C426   1.408       .  A
C425        H432   1.068       .  S
C426        S428   1.797       .  S
S427        H430   1.409       .  S
S428        H429   1.408       .  S
C433        C434   1.422       .  A
C433        C438   1.398       .  A
C434        C435   1.430       .  A
C434        H443   1.082       .  S
C435        C436   1.418       .  A
C435        S439   1.805       .  S
C436        C437   1.414       .  A
C437        C438   1.415       .  A
C437        H444   1.070       .  S
C438        S440   1.783       .  S
S439        H442   1.407       .  S
S440        H441   1.409       .  S
C445        C446   1.383       .  A
C445        C450   1.422       .  A
C446        C447   1.399       .  A
C446        H455   1.046       .  S
C447        C448   1.359       .  A
C447        S451   1.806       .  S
C448        C449   1.419       .  A
C449        C450   1.440       .  A
C449        H456   1.082       .  S
C450        S452   1.792       .  S
S451        H454   1.408   1_545  S
S452        H453   1.409       .  S
C457        C458   1.410       .  A
C457        C462   1.428       .  A
C458        C459   1.418       .  A
C458        H467   1.081       .  S
C459        C460   1.383       .  A
C459        S463   1.790       .  S
C460        C461   1.427       .  A
C461        C462   1.437       .  A
C461        H468   1.070       .  S
C462        S464   1.793       .  S
S463        H466   1.412       .  S
S464        H465   1.406       .  S
C469        C470   1.418       .  A
C469        C474   1.405       .  A
C470        C471   1.424       .  A
C470        H479   1.082       .  S
C471        C472   1.419       .  A
C471        S475   1.798       .  S
C472        C473   1.409       .  A
C473        C474   1.412       .  A
C473        H480   1.082       .  S
C474        S476   1.814       .  S
S475        H478   1.408       .  S
S476        H477   1.409       .  S
C481        C482   1.418       .  A
C481        C486   1.400       .  A
C482        C483   1.424       .  A
C482        H491   1.083       .  S
C483        C484   1.416       .  A
C483        S487   1.802       .  S
C484        C485   1.417       .  A
C485        C486   1.408       .  A
C485        H492   1.065       .  S
C486        S488   1.799       .  S
S487        H490   1.406       .  S
S488        H489   1.408       .  S
C493        C494   1.403       .  A
C493        C498   1.418       .  A
C494        C495   1.405       .  A
C494        H503   1.084       .  S
C495        C496   1.399       .  A
C495        S499   1.802       .  S
C496        C497   1.418       .  A
C497        C498   1.427       .  A
C497        H504   1.081       .  S
C498        S500   1.795       .  S
S499        H502   1.391       .  S
S500        H501   1.408       .  S
C505        C506   1.396       .  A
C505        C510   1.410       .  A
C506        C507   1.396       .  A
C506        H515   1.077       .  S
C507        C508   1.377       .  A
C507        S511   1.798       .  S
C508        C509   1.413       .  A
C509        C510   1.419       .  A
C509        H516   1.082       .  S
C510        S512   1.776       .  S
S511        H514   1.398       .  S
S512        H513   1.408       .  S
C517        C518   1.401       .  A
C517        C522   1.424       .  A
C518        C519   1.401       .  A
C518        H527   1.085       .  S
C519        C520   1.405       .  A
C519        S523   1.800       .  S
C520        C521   1.409       .  A
C521        C522   1.424       .  A
C521        H528   1.075       .  S
C522        S524   1.797       .  S
S523        H526   1.405       .  S
S524        H525   1.408       .  S
C529        C530   1.421       .  A
C529        C534   1.390       .  A
C530        C531   1.435       .  A
C530        H539   1.081       .  S
C531        C532   1.425       .  A
C531        S535   1.808       .  S
C532        C533   1.411       .  A
C533        C534   1.404       .  A
C533        H540   1.058       .  S
C534        S536   1.773       .  S
S535        H538   1.406       .  S
S536        H537   1.405       .  S
C541        C542   1.408       .  A
C541        C546   1.445       .  A
C542        C543   1.420       .  A
C542        H551   1.083       .  S
C543        C544   1.420       .  A
C543        S547   1.796       .  S
C544        C545   1.392       .  A
C545        C546   1.412       .  A
C545        H552   1.084       .  S
C546        S548   1.777       .  S
S547        H550   1.408       .  S
S548        H549   1.367       .  S
C553        C554   1.417       .  A
C553        C558   1.437       .  A
C554        C555   1.423       .  A
C554        H563   1.078       .  S
C555        C556   1.395       .  A
C555        S559   1.793       .  S
C556        C557   1.389       .  A
C557        C558   1.411       .  A
C557        H564   1.084       .  S
C558        S560   1.752       .  S
S559        H562   1.409       .  S
S560        H561   1.389       .  S
C565        C566   1.408       .  A
C565        C570   1.413       .  A
C566        C567   1.406       .  A
C566        H575   1.083       .  S
C567        C568   1.413       .  A
C567        S571   1.801       .  S
C568        C569   1.364       .  A
C569        C570   1.366       .  A
C569        H576   1.070       .  S
C570        S572   1.774   1_565  S
S571        H574   1.405       .  S
S572        H573   1.406   1_545  S
C577        C578   1.408       .  A
C577        C582   1.383       .  A
C578        C579   1.411       .  A
C578        H587   1.079       .  S
C579        C580   1.413       .  A
C579        S583   1.803       .  S
C580        C581   1.412       .  A
C581        C582   1.374       .  A
C581        H588   1.072   1_565  S
C582        S584   1.812       .  S
S583        H586   1.408       .  S
S584        H585   1.405   1_565  S
C589        C590   1.410       .  A
C589        C594   1.423       .  A
C590        C591   1.424       .  A
C590        H599   1.083       .  S
C591        C592   1.422       .  A
C591        S595   1.795       .  S
C592        C593   1.380       .  A
C593        C594   1.348       .  A
C593        H600   1.082       .  S
C594        S596   1.820       .  S
S595        H598   1.407       .  S
S596        H597   1.408       .  S
C601        C602   1.387       .  A
C601        C606   1.429       .  A
C602        C603   1.382       .  A
C602        H611   1.083       .  S
C603        C604   1.382       .  A
C603        S607   1.807       .  S
C604        C605   1.417       .  A
C605        C606   1.430       .  A
C605        H612   1.080       .  S
C606        S608   1.797       .  S
S607        H610   1.404       .  S
S608        H609   1.406       .  S
C613        C614   1.414       .  A
C613        C618   1.392       .  A
C614        C615   1.412       .  A
C614        H623   1.062       .  S
C615        C616   1.406       .  A
C615        S619   1.795       .  S
C616        C617   1.399       .  A
C617        C618   1.406       .  A
C617        H624   1.052       .  S
C618        S620   1.778       .  S
S619        H622   1.408       .  S
S620        H621   1.409       .  S
C625        C626   1.416       .  A
C625        C630   1.408       .  A
C626        C627   1.416       .  A
C626        H635   1.080       .  S
C627        C628   1.395       .  A
C627        S631   1.790       .  S
C628        C629   1.406       .  A
C629        C630   1.415       .  A
C629        H636   1.068       .  S
C630        S632   1.808       .  S
S631        H634   1.408       .  S
S632        H633   1.408       .  S
C637        C638   1.413       .  A
C637        C642   1.403       .  A
C638        C639   1.365       .  A
C638        H647   1.080       .  S
C639        C640   1.401       .  A
C639        S643   1.823       .  S
C640        C641   1.406       .  A
C641        C642   1.396       .  A
C641        H648   1.076       .  S
C642        S644   1.797       .  S
S643        H646   1.401       .  S
S644        H645   1.402       .  S
C649        C650   1.404       .  A
C649        C654   1.410       .  A
C650        C651   1.403       .  A
C650        H659   1.076       .  S
C651        C652   1.404       .  A
C651        S655   1.797       .  S
C652        C653   1.390       .  A
C653        C654   1.395       .  A
C653        H660   1.075       .  S
C654        S656   1.777       .  S
S655        H658   1.407       .  S
S656        H657   1.403       .  S
C661        C662   1.406       .  A
C661        C666   1.406       .  A
C662        C663   1.406       .  A
C662        H671   1.079       .  S
C663        C664   1.408       .  A
C663        S667   1.797       .  S
C664        C665   1.411       .  A
C665        C666   1.417       .  A
C665        H672   1.082       .  S
C666        S668   1.807       .  S
S667        H670   1.408       .  S
S668        H669   1.408       .  S
C673        C674   1.424       .  A
C673        C678   1.414       .  A
C674        C675   1.424       .  A
C674        H683   1.056       .  S
C675        C676   1.400       .  A
C675        S679   1.793   1_655  S
C676        C677   1.408       .  A
C677        C678   1.427       .  A
C677        H684   1.079       .  S
C678        S680   1.792       .  S
S679        H682   1.408   1_455  S
S680        H681   1.405       .  S
