geometry optimzed in LAMMPS
_audit_creation_date              2020-11-30 
_audit_creation_method            'lammps2cif' 
_symmetry_space_group_name_H-M    'P1' 
_symmetry_Int_Tables_number       1 
_symmetry_cell_setting            triclinic 
loop_ 
_symmetry_equiv_pos_as_xyz 
  x,y,z 
_cell_length_a                    17.705727282563938 
_cell_length_b                    17.82329757286052 
_cell_length_c                    42.12710595051307 
_cell_angle_alpha                 91.83158396267348 
_cell_angle_beta                  90.69133548009451 
_cell_angle_gamma                 92.43939877509521 
loop_ 
_atom_site_label 
_atom_site_type_symbol 
_atom_site_fract_x 
_atom_site_fract_y 
_atom_site_fract_z 
_atom_site_charge 
O1          O  0.05791885  0.41447986  0.53074459    -0.74030
O2          O  0.05458103  0.06866387  0.47106611    -0.74060
O3          O  0.05295771  0.06313974  0.53603474    -0.74120
O4          O  0.05414454  0.42039001  0.46541615    -0.74170
O5          O  0.42960941  0.40438325  0.46968096    -0.74100
O6          O  0.42821862  0.06549391  0.53071399    -0.74080
O7          O  0.43044985  0.05233032  0.46529628    -0.74050
O8          O  0.43327392  0.41731944  0.53516331    -0.74120
Ni9        Ni  0.05956624  0.49183473  0.50085987     1.25410
Ni10       Ni  0.42562233  0.98457533  0.50024209     1.25360
C11         C  0.99766622  0.39790407  0.54581758     0.88150
C12         C  0.49445476  0.07790471  0.45510288     0.88080
C13         C  0.98894032  0.08428068  0.54619988     0.88110
C14         C  0.49017828  0.39415677  0.45426657     0.88280
C15         C  0.49772600  0.50593517  0.74819622    -0.02090
C16         C  0.49377135  0.48486772  0.24971195    -0.02090
C17         C  0.46671365  0.35487770  0.31868234     0.03520
C18         C  0.50552919  0.40978011  0.30177392    -0.12630
C19         C  0.49528428  0.41016222  0.26861548     0.01020
C20         C  0.49166121  0.33584773  0.25390911    -0.11150
C21         C  0.47052641  0.27322626  0.27283946     0.03520
C22         C  0.43551392  0.29268682  0.30170336    -0.10570
H23         H  0.54033564  0.45211865  0.31457895     0.09110
H24         H  0.50656265  0.32726795  0.22927727     0.06640
H25         H  0.40887271  0.24929992  0.31535988     0.06490
O26         O  0.07553166  0.06902247  0.03353279    -0.74030
O27         O  0.42175328  0.08326821  0.97003090    -0.74060
O28         O  0.42594948  0.07888367  0.03541024    -0.74120
O29         O  0.06935237  0.06947137  0.96755014    -0.74170
O30         O  0.05915782  0.44513942  0.96833763    -0.74100
O31         O  0.40714947  0.45526186  0.03094344    -0.74080
O32         O  0.41076002  0.45875659  0.96558707    -0.74050
O33         O  0.05548024  0.44535215  0.03332686    -0.74120
Ni34       Ni  0.49876010  0.07977328  0.00180264     1.25410
Ni35       Ni  0.48247942  0.44676912  0.99946364     1.25360
C36         C  0.08482661  0.50580317  0.04633537     0.88150
C37         C  0.39907341  0.52349497  0.95455754     0.88080
C38         C  0.39840797  0.01726727  0.04626808     0.88110
C39         C  0.08059027  0.50474082  0.95452250     0.88280
C40         C  0.35256606  0.46657979  0.17903461     0.03520
C41         C  0.41363883  0.49586088  0.19750428    -0.12630
C42         C  0.41729167  0.48326005  0.23032278     0.01020
C43         C  0.34458206  0.48084403  0.24520208    -0.11150
C44         C  0.27830588  0.46688853  0.22604787     0.03520
C45         C  0.29030846  0.43719633  0.19519948    -0.10570
H46         H  0.45542937  0.53150058  0.18632121     0.09110
H47         H  0.33970965  0.49384664  0.27031592     0.06640
H48         H  0.24080994  0.41929495  0.18150973     0.06490
C49         C  0.50619361  0.12607682  0.32059498     0.03520
C50         C  0.54004024  0.18646019  0.30513832    -0.12630
C51         C  0.51200368  0.20009779  0.27441889     0.01020
C52         C  0.49641021  0.13416088  0.25477525    -0.11150
C53         C  0.49230060  0.06169367  0.26917655     0.03520
C54         C  0.47734683  0.06555467  0.30193135    -0.10570
H55         H  0.56424572  0.23268722  0.31958326     0.09110
H56         H  0.48517056  0.13897609  0.22964766     0.06640
H57         H  0.44312965  0.02320807  0.31327184     0.06490
C58         C  0.12908478  0.51634656  0.18167991     0.03520
C59         C  0.19081455  0.54727086  0.19948511    -0.12630
C60         C  0.20746739  0.51183897  0.22817298     0.01020
C61         C  0.14304479  0.49026432  0.24629978    -0.11150
C62         C  0.06987780  0.48525598  0.23106197     0.03520
C63         C  0.07294947  0.47659861  0.19787669    -0.10570
H64         H  0.23659550  0.57431190  0.18662203     0.09110
H65         H  0.14974081  0.47534276  0.27082845     0.06640
H66         H  0.03221247  0.44112206  0.18452940     0.06490
C67         C  0.36926422  0.53027620  0.81866269     0.03520
C68         C  0.42212051  0.49205903  0.80087765    -0.12630
C69         C  0.42278196  0.50113768  0.76770857     0.01020
C70         C  0.34849886  0.50377570  0.75357642    -0.11150
C71         C  0.28779574  0.52657824  0.77315307     0.03520
C72         C  0.31026484  0.56166008  0.80237360    -0.10570
H73         H  0.46439516  0.46130478  0.81303214     0.09110
H74         H  0.33874260  0.48864060  0.72874957     0.06640
H75         H  0.26952316  0.59107581  0.81608078     0.06490
C76         C  0.52694782  0.36278818  0.68009445     0.03520
C77         C  0.49094950  0.42043417  0.69621248    -0.12630
C78         C  0.49760955  0.42799424  0.72945632     0.01020
C79         C  0.50012668  0.35729017  0.74497660    -0.11150
C80         C  0.51979825  0.29157090  0.72717921     0.03520
C81         C  0.55466716  0.30488200  0.69781096    -0.10570
H82         H  0.45580604  0.45599395  0.68271892     0.09110
H83         H  0.48445522  0.35312369  0.76961066     0.06640
H84         H  0.57935965  0.25860378  0.68512883     0.06490
C85         C  0.46493248  0.13852645  0.68014616     0.03520
C86         C  0.50160886  0.08328933  0.69630800    -0.12630
C87         C  0.49664365  0.08092509  0.72949154     0.01020
C88         C  0.49529737  0.15414499  0.74496973    -0.11150
C89         C  0.47475797  0.21712476  0.72713945     0.03520
C90         C  0.43826585  0.19927703  0.69774309    -0.10570
H91         H  0.53615945  0.04572301  0.68292304     0.09110
H92         H  0.51260558  0.16236463  0.76956335     0.06640
H93         H  0.41307808  0.24366568  0.68494785     0.06490
C94         C  0.13175208  0.50660275  0.81946077     0.03520
C95         C  0.07691629  0.53617741  0.80012162    -0.12630
C96         C  0.07389275  0.51430848  0.76759625     0.01020
C97         C  0.14699975  0.50558642  0.75369969    -0.11150
C98         C  0.20893066  0.48959387  0.77400298     0.03520
C99         C  0.18824232  0.46683142  0.80460058    -0.10570
H100        H  0.03485921  0.57029288  0.81097578     0.09110
H101        H  0.15505011  0.51159349  0.72848132     0.06640
H102        H  0.22893695  0.44051979  0.81935757     0.06490
C103        C  0.40283953  0.59293029  0.90478965    -0.05390
C104        C  0.37416441  0.52993038  0.92093135     0.00540
C105        C  0.33747081  0.96998182  0.90308191    -0.08030
C106        C  0.33954648  0.97117140  0.86969085    -0.05410
C107        C  0.37119155  0.53286928  0.85375714     0.00530
C108        C  0.40039918  0.59623134  0.87156242    -0.07940
C109        C  0.43192900  0.66774156  0.85708886     0.62440
H110        H  0.43065370  0.63953443  0.91810650     0.13130
H111        H  0.31712853  0.92298703  0.85585945     0.13150
C112        C  0.29391615  0.90643935  0.91885597     0.62670
F113        F  0.50821801  0.17388207  0.86342333    -0.22490
F114        F  0.39795767  0.22909351  0.87080878    -0.19820
F115        F  0.42162189  0.67029701  0.82462323    -0.19500
F116        F  0.25319856  0.93479045  0.94402307    -0.19550
F117        F  0.34234025  0.35430127  0.92986704    -0.19870
F118        F  0.24352231  0.36962528  0.89772155    -0.22550
C119        C  0.33837680  0.44282932  0.08849940    -0.05390
C120        C  0.36632540  0.51363084  0.07898998     0.00540
C121        C  0.37884868  0.07143398  0.10276053    -0.08030
C122        C  0.36579307  0.05490959  0.13477551    -0.05410
C123        C  0.34846226  0.48148720  0.14431118     0.00530
C124        C  0.33367588  0.42445277  0.12069610    -0.07940
C125        C  0.32137354  0.34295786  0.12903163     0.62440
H126        H  0.32693743  0.39923195  0.07041987     0.13130
H127        H  0.37432109  0.09855504  0.15308131     0.13150
C128        C  0.41018582  0.14903683  0.09514761     0.62670
F129        F  0.32045916  0.29638274  0.10225948    -0.22490
F130        F  0.25317521  0.83142141  0.14360675    -0.19820
F131        F  0.37877166  0.32263808  0.14913978    -0.19500
F132        F  0.36445350  0.17975444  0.07259900    -0.19550
F133        F  0.98273179  0.64505316  0.08377835    -0.19870
F134        F  0.41405757  0.19638478  0.12174074    -0.22550
C135        C  0.13826110  0.06473111  0.90775017    -0.05390
C136        C  0.10720037  0.49924173  0.92104230     0.00540
C137        C  0.08915662  0.43543359  0.90045299    -0.08030
C138        C  0.09967212  0.44173300  0.86768015    -0.05410
C139        C  0.12529000  0.50859343  0.85445907     0.00530
C140        C  0.14555417  0.07168998  0.87473913    -0.07940
C141        C  0.17585435  0.14695574  0.86334164     0.62440
H142        H  0.15336475  0.11279650  0.92329590     0.13130
H143        H  0.08588530  0.39440560  0.85156242     0.13150
C144        C  0.05701525  0.36080263  0.91195070     0.62670
F145        F  0.14568219  0.20485826  0.88090203    -0.22490
F146        F  0.15916925  0.15775547  0.83176207    -0.19820
F147        F  0.25294619  0.65231003  0.86804430    -0.19500
F148        F  0.48737771  0.87006172  0.92529078    -0.19550
F149        F  0.60581014  0.33196158  0.93384639    -0.19870
F150        F  0.54626468  0.30820552  0.88739747    -0.22550
C151        C  0.13015623  0.57502742  0.09547235    -0.05390
C152        C  0.11844900  0.50520173  0.07909697     0.00540
C153        C  0.12210406  0.93871655  0.09668421    -0.08030
C154        C  0.12638564  0.94518644  0.13008808    -0.05410
C155        C  0.12871496  0.51530123  0.14642126     0.00530
C156        C  0.13133081  0.58147942  0.12883559    -0.07940
C157        C  0.13169045  0.66025551  0.14365006     0.62440
H158        H  0.13081557  0.62624483  0.08226871     0.13130
H159        H  0.12536889  0.89485926  0.14383795     0.13150
C160        C  0.11889489  0.86090359  0.08081170     0.62670
F161        F  0.07696533  0.20069391  0.12915779    -0.22490
F162        F  0.20180007  0.19443351  0.13890599    -0.19820
F163        F  0.11661267  0.66299421  0.17571826    -0.19500
F164        F  0.16276211  0.86029111  0.05384346    -0.19550
F165        F  0.04484707  0.33914398  0.07300206    -0.19870
F166        F  0.14672105  0.30828370  0.10057998    -0.22550
C167        C  0.41277643  0.37581598  0.40517072    -0.05390
C168        C  0.48256865  0.36542640  0.42072392     0.00540
C169        C  0.04478058  0.34322505  0.40237721    -0.08030
C170        C  0.03772856  0.34153434  0.36908373    -0.05410
C171        C  0.46921403  0.35603701  0.35377763     0.00530
C172        C  0.40493039  0.37114148  0.37193744    -0.07940
C173        C  0.32936102  0.38561626  0.35618858     0.62440
H174        H  0.36474501  0.39180871  0.41907873     0.13130
H175        H  0.08655036  0.33007158  0.35480578     0.13150
C176        C  0.11792326  0.32019180  0.41750199     0.62670
F177        F  0.27670370  0.40890539  0.37800237    -0.22490
F178        F  0.30049184  0.32085114  0.34087349    -0.19820
F179        F  0.33849492  0.44068922  0.33407947    -0.19500
F180        F  0.10248483  0.28057781  0.44450286    -0.19550
F181        F  0.16342661  0.38275438  0.42557278    -0.19870
F182        F  0.15748117  0.27468882  0.39693831    -0.22550
C183        C  0.07752744  0.38078053  0.59348982    -0.05390
C184        C  0.50611865  0.36826719  0.57839057     0.00540
C185        C  0.44438423  0.34186750  0.59671471    -0.08030
C186        C  0.45411212  0.33842705  0.62985314    -0.05410
C187        C  0.52383416  0.35740117  0.64493343     0.00530
C188        C  0.08723651  0.37650402  0.62652455    -0.07940
C189        C  0.16361362  0.39682016  0.64202592     0.62440
H190        H  0.12535598  0.39941144  0.57959487     0.13130
H191        H  0.40596866  0.32418718  0.64437502     0.13150
C192        C  0.36815404  0.31868651  0.58187522     0.62670
F193        F  0.21731879  0.41735588  0.61999546    -0.22490
F194        F  0.18925652  0.33586094  0.65782055    -0.19820
F195        F  0.15704401  0.45653991  0.66346247    -0.19500
F196        F  0.37803700  0.27555401  0.55445816    -0.19550
F197        F  0.32912705  0.38168830  0.57477292    -0.19870
F198        F  0.32454073  0.27614815  0.60225642    -0.22550
C199        C  0.06856436  0.12458571  0.37284119    -0.05390
C200        C  0.50065947  0.12646312  0.35571278     0.00540
C201        C  0.43133504  0.12478284  0.37237319    -0.08030
C202        C  0.43308877  0.11755797  0.40550651    -0.05410
C203        C  0.50059367  0.10815058  0.42246935     0.00530
C204        C  0.07049585  0.11382114  0.40579515    -0.07940
C205        C  0.14726049  0.10247100  0.42127904     0.62440
H206        H  0.12056712  0.12649731  0.35954750     0.13130
H207        H  0.37987480  0.11444399  0.41797582     0.13150
C208        C  0.35338113  0.12912051  0.35731848     0.62670
F209        F  0.20591667  0.11747196  0.40090611    -0.22490
F210        F  0.15177048  0.02879129  0.42996237    -0.19820
F211        F  0.15886333  0.14981363  0.44763080    -0.19500
F212        F  0.35299055  0.13311169  0.32472983    -0.19550
F213        F  0.31951525  0.19180178  0.36975808    -0.19870
F214        F  0.31024215  0.06604984  0.36482956    -0.22550
C215        C  0.03595610  0.15545259  0.63039727    -0.05390
C216        C  0.46674643  0.13875326  0.64507696     0.00540
C217        C  0.40256371  0.11720763  0.62638657    -0.08030
C218        C  0.41084170  0.10876607  0.59337471    -0.05410
C219        C  0.48171448  0.11896043  0.57865692     0.00510
C220        C  0.04435148  0.14762331  0.59730979    -0.07940
C221        C  0.12010307  0.16880078  0.58289107     0.62440
H222        H  0.08474504  0.17134097  0.64518183     0.13130
H223        H  0.36241859  0.08835002  0.57921132     0.13150
C224        C  0.32706529  0.09820412  0.64159300     0.62670
F225        F  0.16469862  0.21368834  0.60369765    -0.22490
F226        F  0.10925612  0.20867434  0.55567671    -0.19820
F227        F  0.15872446  0.10487136  0.57556849    -0.19500
F228        F  0.30198522  0.16064144  0.65793997    -0.19550
F229        F  0.33503176  0.04064495  0.66248440    -0.19870
F230        F  0.27230255  0.07519499  0.61927838    -0.22550
O231        O  0.05791704  0.91447875  0.53074509    -0.74030
O232        O  0.05458254  0.56866159  0.47106390    -0.74060
O233        O  0.05296194  0.56314108  0.53603267    -0.74120
O234        O  0.05414485  0.92039232  0.46541681    -0.74170
O235        O  0.42960982  0.90438363  0.46968094    -0.74100
O236        O  0.42822278  0.56549655  0.53071258    -0.74080
O237        O  0.43045103  0.55232964  0.46529504    -0.74050
O238        O  0.43327198  0.91731678  0.53516336    -0.74120
Ni239      Ni  0.05956443  0.99183533  0.50086126     1.25410
Ni240      Ni  0.42562407  0.48457646  0.50024148     1.25360
C241        C  0.99766429  0.89790207  0.54581781     0.88150
C242        C  0.49445581  0.57790272  0.45510102     0.88080
C243        C  0.98894516  0.58428310  0.54619798     0.88110
C244        C  0.49017933  0.89415817  0.45426685     0.88280
C245        C  0.49771282  0.00593266  0.74819866    -0.02090
C246        C  0.49377644  0.98486951  0.24971421    -0.02090
C247        C  0.46671965  0.85487541  0.31868271     0.03520
C248        C  0.50553570  0.90977890  0.30177512    -0.12630
C249        C  0.49529185  0.91016284  0.26861675     0.01020
C250        C  0.49166927  0.83584924  0.25390947    -0.11150
C251        C  0.47053321  0.77322643  0.27283888     0.03520
C252        C  0.43552049  0.79268539  0.30170297    -0.10570
H253        H  0.54034140  0.95211711  0.31458071     0.09110
H254        H  0.50657094  0.82727126  0.22927755     0.06640
H255        H  0.40887854  0.74929792  0.31535891     0.06490
O256        O  0.07552801  0.56901687  0.03352791    -0.74030
O257        O  0.42175888  0.58329201  0.97002638    -0.74060
O258        O  0.42595093  0.57889939  0.03540533    -0.74120
O259        O  0.06935108  0.56947210  0.96754595    -0.74170
O260        O  0.05917604  0.94513851  0.96834390    -0.74100
O261        O  0.40716588  0.95524381  0.03095074    -0.74080
O262        O  0.41077181  0.95873198  0.96559341    -0.74050
O263        O  0.05550206  0.94535588  0.03333271    -0.74120
Ni264      Ni  0.49876266  0.57978209  0.00179822     1.25410
Ni265      Ni  0.48249589  0.94675898  0.99947012     1.25360
C266        C  0.08483992  0.00581100  0.04634081     0.88150
C267        C  0.39907421  0.02346727  0.95456306     0.88080
C268        C  0.39840151  0.51728516  0.04626218     0.88110
C269        C  0.08059970  0.00474095  0.95452757     0.88280
C270        C  0.35256266  0.96657023  0.17903966     0.03520
C271        C  0.41363920  0.99585151  0.19750700    -0.12630
C272        C  0.41729551  0.98325901  0.23032595     0.01020
C273        C  0.34458778  0.98084664  0.24520682    -0.11150
C274        C  0.27830873  0.96689052  0.22605459     0.03520
C275        C  0.29030529  0.93719338  0.19520663    -0.10570
H276        H  0.45542599  0.03149177  0.18632212     0.09110
H277        H  0.33971869  0.99385364  0.27032044     0.06640
H278        H  0.24080367  0.91929429  0.18151837     0.06490
C279        C  0.50619205  0.62607442  0.32059274     0.03520
C280        C  0.54004376  0.68645592  0.30513647    -0.12630
C281        C  0.51200842  0.70009635  0.27441713     0.01020
C282        C  0.49641220  0.63416044  0.25477300    -0.11150
C283        C  0.49229803  0.56169285  0.26917399     0.03520
C284        C  0.47734147  0.56555465  0.30192856    -0.10570
H285        H  0.56425163  0.73268139  0.31958175     0.09110
H286        H  0.48517406  0.63897693  0.22964537     0.06640
H287        H  0.44312127  0.52320936  0.31326851     0.06490
C288        C  0.12909773  0.01636583  0.18168545     0.03520
C289        C  0.19082733  0.04728374  0.19949267    -0.12630
C290        C  0.20747451  0.01184661  0.22817995     0.01020
C291        C  0.14304902  0.99026995  0.24630445    -0.11150
C292        C  0.06988396  0.98526383  0.23106511     0.03520
C293        C  0.07295896  0.97661643  0.19787974    -0.10570
H294        H  0.23661181  0.07432313  0.18663111     0.09110
H295        H  0.14974189  0.97534350  0.27083267     0.06640
H296        H  0.03222640  0.94113900  0.18453054     0.06490
C297        C  0.36924937  0.03025299  0.81866779     0.03520
C298        C  0.42210827  0.99204437  0.80088050    -0.12630
C299        C  0.42276895  0.00113215  0.76771163     0.01020
C300        C  0.34848506  0.00377128  0.75358018    -0.11150
C301        C  0.28778149  0.02656645  0.77315833     0.03520
C302        C  0.31025007  0.06164059  0.80238040    -0.10570
H303        H  0.46438487  0.96128942  0.81303342     0.09110
H304        H  0.33872847  0.98864174  0.72875282     0.06640
H305        H  0.26950834  0.09105227  0.81608920     0.06490
C306        C  0.52694297  0.86279309  0.68009508     0.03520
C307        C  0.49093838  0.92043442  0.69621370    -0.12630
C308        C  0.49759817  0.92799306  0.72945768     0.01020
C309        C  0.50012097  0.85728855  0.74497705    -0.11150
C310        C  0.51979855  0.79157272  0.72717892     0.03520
C311        C  0.55466729  0.80488848  0.69781107    -0.10570
H312        H  0.45579242  0.95599282  0.68272054     0.09110
H313        H  0.48445031  0.85311902  0.76961109     0.06640
H314        H  0.57936303  0.75861269  0.68512838     0.06490
C315        C  0.46494232  0.63852704  0.68014403     0.03520
C316        C  0.50162102  0.58329087  0.69630551    -0.12630
C317        C  0.49665633  0.58092653  0.72948898     0.01020
C318        C  0.49530662  0.65414558  0.74496750    -0.11150
C319        C  0.47476338  0.71712420  0.72713775     0.03520
C320        C  0.43827292  0.69927593  0.69774113    -0.10570
H321        H  0.53617112  0.54572430  0.68292039     0.09110
H322        H  0.51261410  0.66236557  0.76956117     0.06640
H323        H  0.41308303  0.74366367  0.68494608     0.06490
C324        C  0.13173643  0.00659062  0.81946372     0.03520
C325        C  0.07690201  0.03616937  0.80012492    -0.12630
C326        C  0.07387926  0.01430449  0.76759911     0.01020
C327        C  0.14698643  0.00558099  0.75370288    -0.11150
C328        C  0.20891553  0.98958304  0.77400621     0.03520
C329        C  0.18822449  0.96681677  0.80460304    -0.10570
H330        H  0.03484491  0.07028450  0.81097941     0.09110
H331        H  0.15503813  0.01159017  0.72848470     0.06640
H332        H  0.22891866  0.94050375  0.81936024     0.06490
C333        C  0.40281704  0.09290491  0.90479559    -0.05390
C334        C  0.37415850  0.02989798  0.92093701     0.00540
C335        C  0.33746870  0.47001897  0.90307661    -0.08030
C336        C  0.33955109  0.47120403  0.86968593    -0.05410
C337        C  0.37117824  0.03284175  0.85376247     0.00530
C338        C  0.40037517  0.09620711  0.87156846    -0.07940
C339        C  0.43189579  0.16772234  0.85709608     0.62440
H340        H  0.43062239  0.13951388  0.91811251     0.13130
H341        H  0.31713234  0.42301890  0.85585548     0.13150
C342        C  0.29390190  0.40648405  0.91885046     0.62670
F343        F  0.50825526  0.67388340  0.86340872    -0.22490
F344        F  0.39801204  0.72911994  0.87080610    -0.19820
F345        F  0.42160628  0.17027234  0.82462940    -0.19500
F346        F  0.25319340  0.43484142  0.94401904    -0.19550
F347        F  0.34236568  0.85426906  0.92987472    -0.19870
F348        F  0.24354585  0.86956758  0.89772683    -0.22550
C349        C  0.33837992  0.94281122  0.08850502    -0.05390
C350        C  0.36632713  0.01361320  0.07899515     0.00540
C351        C  0.37885505  0.57144840  0.10275604    -0.08030
C352        C  0.36580353  0.55492186  0.13477120    -0.05410
C353        C  0.34845491  0.98147513  0.14431626     0.00530
C354        C  0.33367217  0.92443820  0.12070209    -0.07940
C355        C  0.32136925  0.84294441  0.12903967     0.62440
H356        H  0.32694773  0.89921136  0.07042592     0.13130
H357        H  0.37433556  0.59856580  0.15307738     0.13150
C358        C  0.41019517  0.64904999  0.09514316     0.62670
F359        F  0.32044112  0.79636719  0.10226813    -0.22490
F360        F  0.25317313  0.33143274  0.14359325    -0.19820
F361        F  0.37877480  0.82262506  0.14914410    -0.19500
F362        F  0.36446120  0.67977168  0.07259623    -0.19550
F363        F  0.98272798  0.14504355  0.08378529    -0.19870
F364        F  0.41407450  0.69639560  0.12173682    -0.22550
C365        C  0.13827047  0.56472775  0.90774862    -0.05390
C366        C  0.10720731  0.99924160  0.92104691     0.00540
C367        C  0.08917393  0.93542660  0.90046004    -0.08030
C368        C  0.09968119  0.94172272  0.86768654    -0.05410
C369        C  0.12528057  0.00858600  0.85446238     0.00530
C370        C  0.14557080  0.57169094  0.87473818    -0.07940
C371        C  0.17587914  0.64695601  0.86334341     0.62440
H372        H  0.15338098  0.61278785  0.92329628     0.13130
H373        H  0.08590089  0.89439021  0.85157068     0.13150
C374        C  0.05704849  0.86079216  0.91196094     0.62670
F375        F  0.14571741  0.70485815  0.88090750    -0.22490
F376        F  0.15918896  0.65776549  0.83176503    -0.19820
F377        F  0.25292071  0.15231982  0.86804489    -0.19500
F378        F  0.48734755  0.37008519  0.92528072    -0.19550
F379        F  0.60585019  0.83196557  0.93385763    -0.19870
F380        F  0.54630726  0.80818759  0.88740981    -0.22550
C381        C  0.13016804  0.07504184  0.09547683    -0.05390
C382        C  0.11846353  0.00521451  0.07910246     0.00540
C383        C  0.12208497  0.43870200  0.09667759    -0.08030
C384        C  0.12636367  0.44516871  0.13008166    -0.05410
C385        C  0.12873433  0.01531976  0.14642678     0.00530
C386        C  0.13134639  0.08149635  0.12884014    -0.07940
C387        C  0.13170597  0.16027344  0.14365310     0.62440
H388        H  0.13082267  0.12625812  0.08227246     0.13130
H389        H  0.12534556  0.39484011  0.14383072     0.13150
C390        C  0.11887599  0.36089101  0.08080333     0.62670
F391        F  0.07696369  0.70068437  0.12915008    -0.22490
F392        F  0.20179096  0.69441068  0.13891136    -0.19820
F393        F  0.11664924  0.16301640  0.17572307    -0.19500
F394        F  0.16273745  0.36028316  0.05383339    -0.19550
F395        F  0.04486678  0.83915829  0.07300825    -0.19870
F396        F  0.14673263  0.80829699  0.10059060    -0.22550
C397        C  0.41277932  0.87581650  0.40517056    -0.05390
C398        C  0.48257093  0.86542698  0.42072426     0.00540
C399        C  0.04478280  0.84322328  0.40237815    -0.08030
C400        C  0.03773146  0.84152980  0.36908460    -0.05410
C401        C  0.46921811  0.85603367  0.35377797     0.00530
C402        C  0.40493420  0.87114026  0.37193727    -0.07940
C403        C  0.32936560  0.88561546  0.35618783     0.62440
H404        H  0.36474780  0.89181092  0.41907813     0.13130
H405        H  0.08655317  0.83006466  0.35480695     0.13150
C406        C  0.11792512  0.82019119  0.41750358     0.62670
F407        F  0.27670681  0.90890304  0.37800128    -0.22490
F408        F  0.30049755  0.82085097  0.34087187    -0.19820
F409        F  0.33850053  0.94068972  0.33407936    -0.19500
F410        F  0.10248612  0.78057892  0.44450488    -0.19550
F411        F  0.16342804  0.88275446  0.42557383    -0.19870
F412        F  0.15748371  0.77468705  0.39694062    -0.22550
C413        C  0.07752492  0.88078074  0.59349032    -0.05390
C414        C  0.50611665  0.86826578  0.57839082     0.00540
C415        C  0.44438197  0.84186699  0.59671493    -0.08030
C416        C  0.45410852  0.83843033  0.62985354    -0.05410
C417        C  0.52382994  0.85740640  0.64493402     0.00530
C418        C  0.08723310  0.87650737  0.62652522    -0.07940
C419        C  0.16361009  0.89682481  0.64202649     0.62440
H420        H  0.12535380  0.89941032  0.57959528     0.13130
H421        H  0.40596464  0.82419103  0.64437530     0.13150
C422        C  0.36815301  0.81868263  0.58187516     0.62670
F423        F  0.21731509  0.91736033  0.61999591    -0.22490
F424        F  0.18925394  0.83586651  0.65782145    -0.19820
F425        F  0.15703981  0.95654517  0.66346269    -0.19500
F426        F  0.37803833  0.77555007  0.55445830    -0.19550
F427        F  0.32912346  0.88168252  0.57477245    -0.19870
F428        F  0.32454119  0.77614288  0.60225637    -0.22550
C429        C  0.06856340  0.62458229  0.37283880    -0.05390
C430        C  0.50065820  0.62645992  0.35571059     0.00540
C431        C  0.43133414  0.62478039  0.37237130    -0.08030
C432        C  0.43308850  0.61755480  0.40550461    -0.05410
C433        C  0.50059376  0.60814765  0.42246726     0.00530
C434        C  0.07049551  0.61381833  0.40579280    -0.07940
C435        C  0.14726048  0.60246941  0.42127656     0.62440
H436        H  0.12056597  0.62649365  0.35954498     0.13130
H437        H  0.37987481  0.61444095  0.41797412     0.13150
C438        C  0.35338005  0.62912049  0.35731703     0.62670
F439        F  0.20591612  0.61747091  0.40090347    -0.22490
F440        F  0.15177162  0.52878995  0.42996006    -0.19820
F441        F  0.15886301  0.64981257  0.44762816    -0.19500
F442        F  0.35298859  0.63311377  0.32472846    -0.19550
F443        F  0.31951573  0.69180176  0.36975752    -0.19870
F444        F  0.31024015  0.56605010  0.36482761    -0.22550
C445        C  0.03596364  0.65545649  0.63039488    -0.05390
C446        C  0.46675487  0.63875455  0.64507498     0.00540
C447        C  0.40257174  0.61720797  0.62638506    -0.08030
C448        C  0.41084844  0.60876783  0.59337317    -0.05410
C449        C  0.48172060  0.61896309  0.57865498     0.00510
C450        C  0.04435812  0.64762662  0.59730738    -0.07940
C451        C  0.12010949  0.66880327  0.58288828     0.62440
H452        H  0.08475239  0.67134707  0.64517928     0.13130
H453        H  0.36242496  0.58835155  0.57921007     0.13150
C454        C  0.32707441  0.59820181  0.64159194     0.62670
F455        F  0.16470547  0.71369150  0.60369444    -0.22490
F456        F  0.10926225  0.70867569  0.55567363    -0.19820
F457        F  0.15873056  0.60487339  0.57556608    -0.19500
F458        F  0.30199317  0.66063775  0.65793952    -0.19550
F459        F  0.33504351  0.54064216  0.66248290    -0.19870
F460        F  0.27231120  0.57519195  0.61927761    -0.22550
O461        O  0.55791790  0.41447975  0.53073913    -0.74030
O462        O  0.55457661  0.06866523  0.47106192    -0.74060
O463        O  0.55295361  0.06313949  0.53603000    -0.74120
O464        O  0.55414397  0.42039158  0.46541124    -0.74170
O465        O  0.92960977  0.40438506  0.46968609    -0.74100
O466        O  0.92822284  0.06549621  0.53071908    -0.74080
O467        O  0.93045373  0.05233218  0.46530131    -0.74050
O468        O  0.93327501  0.41732170  0.53516861    -0.74120
Ni469      Ni  0.55956371  0.49183545  0.50085507     1.25410
Ni470      Ni  0.92562478  0.98457754  0.50024724     1.25360
C471        C  0.49766559  0.39790241  0.54581200     0.88150
C472        C  0.99445892  0.07790452  0.45510734     0.88080
C473        C  0.48893579  0.08428008  0.54619473     0.88110
C474        C  0.99017804  0.39415716  0.45427148     0.88280
C475        C  0.99772538  0.50593175  0.74820281    -0.02090
C476        C  0.99376678  0.48486739  0.24971578    -0.02090
C477        C  0.96670544  0.35487581  0.31868699     0.03520
C478        C  0.00551749  0.40977930  0.30177799    -0.12630
C479        C  0.99527040  0.41016159  0.26861955     0.01020
C480        C  0.99164862  0.33584687  0.25391333    -0.11150
C481        C  0.97051765  0.27322479  0.27284405     0.03520
C482        C  0.93550650  0.29268416  0.30170840    -0.10570
H483        H  0.04032546  0.45211715  0.31458269     0.09110
H484        H  0.00655111  0.32726715  0.22928161     0.06640
H485        H  0.90886763  0.24929673  0.31536529     0.06490
O486        O  0.57544337  0.06903701  0.03352836    -0.74030
O487        O  0.92186677  0.08331754  0.97002944    -0.74060
O488        O  0.92604360  0.07892419  0.03540968    -0.74120
O489        O  0.56924812  0.06948457  0.96754523    -0.74170
O490        O  0.55910084  0.44515119  0.96833196    -0.74100
O491        O  0.90719303  0.45530697  0.03093896    -0.74080
O492        O  0.91082620  0.45880680  0.96558502    -0.74050
O493        O  0.55544410  0.44536148  0.03332105    -0.74120
Ni494      Ni  0.99886220  0.07978885  0.00180458     1.25410
Ni495      Ni  0.98252911  0.44678781  0.99946472     1.25360
C496        C  0.58477142  0.50582098  0.04632920     0.88150
C497        C  0.89915857  0.52355070  0.95455685     0.88080
C498        C  0.89847416  0.01731552  0.04626454     0.88110
C499        C  0.58051335  0.50476032  0.95451735     0.88280
C500        C  0.85259000  0.46661648  0.17902729     0.03520
C501        C  0.91365728  0.49588425  0.19750346    -0.12630
C502        C  0.91729453  0.48326754  0.23032126     0.01020
C503        C  0.84457808  0.48085230  0.24519499    -0.11150
C504        C  0.77830917  0.46691140  0.22603466     0.03520
C505        C  0.79032172  0.43723419  0.19518481    -0.10570
H506        H  0.95545994  0.53151964  0.18632536     0.09110
H507        H  0.83969629  0.49384509  0.27030927     0.06640
H508        H  0.74082888  0.41934158  0.18148960     0.06490
C509        C  0.00619039  0.12607605  0.32059884     0.03520
C510        C  0.04003586  0.18645993  0.30514206    -0.12630
C511        C  0.01199776  0.20009776  0.27442289     0.01020
C512        C  0.99640536  0.13416095  0.25477914    -0.11150
C513        C  0.99229488  0.06169361  0.26918036     0.03520
C514        C  0.97734124  0.06555488  0.30193514    -0.10570
H515        H  0.06424161  0.23268692  0.31958691     0.09110
H516        H  0.98516644  0.13897671  0.22965155     0.06640
H517        H  0.94312229  0.02320942  0.31327552     0.06490
C518        C  0.62907249  0.51637053  0.18167116     0.03520
C519        C  0.69080584  0.54729035  0.19947511    -0.12630
C520        C  0.70746488  0.51185277  0.22816123     0.01020
C521        C  0.64304729  0.49027132  0.24628949    -0.11150
C522        C  0.56987732  0.48526293  0.23105437     0.03520
C523        C  0.57294162  0.47661722  0.19786849    -0.10570
H524        H  0.73658389  0.57433406  0.18661116     0.09110
H525        H  0.64974930  0.47534363  0.27081712     0.06640
H526        H  0.53220768  0.44113715  0.18452129     0.06490
C527        C  0.86925777  0.53030701  0.81866553     0.03520
C528        C  0.92211430  0.49207961  0.80088461    -0.12630
C529        C  0.92277960  0.50114091  0.76771464     0.01020
C530        C  0.84849800  0.50377527  0.75358069    -0.11150
C531        C  0.78779296  0.52658732  0.77315421     0.03520
C532        C  0.81025807  0.56168091  0.80237291    -0.10570
H533        H  0.96438256  0.46132466  0.81304261     0.09110
H534        H  0.83874408  0.48863036  0.72875462     0.06640
H535        H  0.76951494  0.59110362  0.81607686     0.06490
C536        C  0.02694473  0.36278692  0.68010065     0.03520
C537        C  0.99094444  0.42043123  0.69621899    -0.12630
C538        C  0.99760491  0.42799071  0.72946284     0.01020
C539        C  0.00012349  0.35728661  0.74498291    -0.11150
C540        C  0.01979744  0.29156835  0.72718529     0.03520
C541        C  0.05466573  0.30488112  0.69781696    -0.10570
H542        H  0.95580163  0.45599207  0.68272561     0.09110
H543        H  0.98445286  0.35311989  0.76961710     0.06640
H544        H  0.07935947  0.25860391  0.68513457     0.06490
C545        C  0.96493672  0.13852118  0.68015219     0.03520
C546        C  0.00161299  0.08328466  0.69631442    -0.12630
C547        C  0.99664664  0.08092124  0.72949796     0.01020
C548        C  0.99530058  0.15414130  0.74497593    -0.11150
C549        C  0.97476022  0.21712045  0.72714535     0.03520
C550        C  0.93826912  0.19927173  0.69774881    -0.10570
H551        H  0.03616265  0.04571689  0.68292973     0.09110
H552        H  0.01260826  0.16236063  0.76956970     0.06640
H553        H  0.91308116  0.24365982  0.68495323     0.06490
C554        C  0.63174027  0.50663368  0.81945877     0.03520
C555        C  0.57690794  0.53620026  0.80011540    -0.12630
C556        C  0.57389060  0.51431754  0.76759121     0.01020
C557        C  0.64699986  0.50559099  0.75369762    -0.11150
C558        C  0.70892681  0.48960637  0.77400437     0.03520
C559        C  0.68823301  0.46685694  0.80460306    -0.10570
H560        H  0.53484289  0.57031127  0.81096639     0.09110
H561        H  0.65505465  0.51158838  0.72847899     0.06640
H562        H  0.72892364  0.44054820  0.81936284     0.06490
C563        C  0.90291306  0.59298025  0.90478568    -0.05390
C564        C  0.87422768  0.52999424  0.92093391     0.00540
C565        C  0.83748599  0.97006301  0.90309303    -0.08030
C566        C  0.83953140  0.97124221  0.86970154    -0.05410
C567        C  0.87118888  0.53292110  0.85376002     0.00530
C568        C  0.90043159  0.59627904  0.87155834    -0.07940
C569        C  0.93195615  0.66777967  0.85707550     0.62440
H570        H  0.93076108  0.63957432  0.91809683     0.13130
H571        H  0.81708434  0.92306144  0.85587607     0.13150
C572        C  0.79391275  0.90654877  0.91887742     0.62670
F573        F  0.00826023  0.17388976  0.86337820    -0.22490
F574        F  0.89803825  0.22914402  0.87081109    -0.19820
F575        F  0.92157806  0.67034375  0.82461384    -0.19500
F576        F  0.75321361  0.93493656  0.94404292    -0.19550
F577        F  0.84232075  0.35439737  0.92989125    -0.19870
F578        F  0.74349983  0.36973556  0.89774928    -0.22550
C579        C  0.83841830  0.44288214  0.08849173    -0.05390
C580        C  0.86638057  0.51368133  0.07898486     0.00540
C581        C  0.87891011  0.07148134  0.10275660    -0.08030
C582        C  0.86585150  0.05495279  0.13477102    -0.05410
C583        C  0.84850421  0.48152961  0.14430426     0.00530
C584        C  0.83371089  0.42450023  0.12068740    -0.07940
C585        C  0.82139509  0.34300330  0.12901949     0.62440
H586        H  0.82697146  0.39928912  0.07041101     0.13130
H587        H  0.87438505  0.09859448  0.15307808     0.13150
C588        C  0.91024871  0.14908444  0.09514484     0.62670
F589        F  0.82050086  0.29643140  0.10224648    -0.22490
F590        F  0.75318282  0.83146936  0.14358312    -0.19820
F591        F  0.87877441  0.32267547  0.14913541    -0.19500
F592        F  0.86452307  0.17980004  0.07259328    -0.19550
F593        F  0.48266817  0.64500493  0.08377743    -0.19870
F594        F  0.91410992  0.19643374  0.12173768    -0.22550
C595        C  0.63819148  0.06476639  0.90774862    -0.05390
C596        C  0.60713523  0.49927222  0.92103818     0.00540
C597        C  0.58911249  0.43546242  0.90044719    -0.08030
C598        C  0.59964021  0.44176437  0.86767538    -0.05410
C599        C  0.62526270  0.50862528  0.85445657     0.00530
C600        C  0.64551221  0.07172245  0.87473816    -0.07940
C601        C  0.67583583  0.14698114  0.86334178     0.62440
H602        H  0.65327996  0.11283315  0.92329579     0.13130
H603        H  0.58586492  0.39443633  0.85155651     0.13150
C604        C  0.55698494  0.36082453  0.91194220     0.62670
F605        F  0.64567895  0.20489421  0.88090108    -0.22490
F606        F  0.65915577  0.15778468  0.83176198    -0.19820
F607        F  0.75292976  0.65231338  0.86804533    -0.19500
F608        F  0.98740932  0.87005493  0.92529907    -0.19550
F609        F  0.10583470  0.33193409  0.93385572    -0.19870
F610        F  0.04628721  0.30818057  0.88740763    -0.22550
C611        C  0.63011618  0.57505275  0.09546280    -0.05390
C612        C  0.61840874  0.50522574  0.07908845     0.00540
C613        C  0.62207755  0.93874117  0.09667545    -0.08030
C614        C  0.62637123  0.94521253  0.13007898    -0.05410
C615        C  0.62869815  0.51532755  0.14641230     0.00530
C616        C  0.63130313  0.58150585  0.12882622    -0.07940
C617        C  0.63165941  0.66028234  0.14364048     0.62440
H618        H  0.63076468  0.62626925  0.08225868     0.13130
H619        H  0.62536473  0.89488592  0.14382913     0.13150
C620        C  0.61887027  0.86092677  0.08080384     0.62670
F621        F  0.57692290  0.20071441  0.12915057    -0.22490
F622        F  0.70176192  0.19446879  0.13889277    -0.19820
F623        F  0.61659203  0.66301829  0.17570964    -0.19500
F624        F  0.66273467  0.86031520  0.05383476    -0.19550
F625        F  0.54482375  0.33916338  0.07299613    -0.19870
F626        F  0.64670124  0.30830871  0.10057247    -0.22550
C627        C  0.91277401  0.37581798  0.40517595    -0.05390
C628        C  0.98256680  0.36542749  0.42072865     0.00540
C629        C  0.54478380  0.34322540  0.40237306    -0.08030
C630        C  0.53773375  0.34153567  0.36907957    -0.05410
C631        C  0.96920818  0.35603580  0.35378234     0.00530
C632        C  0.90492601  0.37114206  0.37194272    -0.07940
C633        C  0.82935596  0.38561633  0.35619436     0.62440
H634        H  0.86474352  0.39181185  0.41908429     0.13130
H635        H  0.58655649  0.33007366  0.35480205     0.13150
C636        C  0.61792610  0.32019329  0.41749849     0.62670
F637        F  0.77670046  0.40890830  0.37800832    -0.22490
F638        F  0.80048525  0.32084999  0.34088068    -0.19820
F639        F  0.83848894  0.44068695  0.33408411    -0.19500
F640        F  0.60248704  0.28058023  0.44449954    -0.19550
F641        F  0.66342851  0.38275652  0.42556925    -0.19870
F642        F  0.65748510  0.27468998  0.39693536    -0.22550
C643        C  0.57752835  0.38077715  0.59348344    -0.05390
C644        C  0.00611840  0.36826976  0.57839647     0.00540
C645        C  0.94438387  0.34186844  0.59672021    -0.08030
C646        C  0.95411094  0.33842672  0.62985869    -0.05410
C647        C  0.02383228  0.35740139  0.64493949     0.00530
C648        C  0.58723804  0.37650248  0.62651816    -0.07940
C649        C  0.66361519  0.39681994  0.64201922     0.62440
H650        H  0.62535684  0.39940668  0.57958816     0.13130
H651        H  0.90596748  0.32418483  0.64438029     0.13150
C652        C  0.86815485  0.31868566  0.58188007     0.62670
F653        F  0.71731968  0.41735541  0.61998850    -0.22490
F654        F  0.68925895  0.33586168  0.65781426    -0.19820
F655        F  0.65704530  0.45654052  0.66345535    -0.19500
F656        F  0.87804032  0.27555125  0.55446376    -0.19550
F657        F  0.82912784  0.38168636  0.57477626    -0.19870
F658        F  0.82454026  0.27614860  0.60226131    -0.22550
C659        C  0.56856401  0.12458833  0.37283792    -0.05390
C660        C  0.00065879  0.12646141  0.35571675     0.00540
C661        C  0.93133557  0.12478158  0.37237793    -0.08030
C662        C  0.93309125  0.11755734  0.40551127    -0.05410
C663        C  0.00059692  0.10814942  0.42247350     0.00530
C664        C  0.57049360  0.11382369  0.40579184    -0.07940
C665        C  0.64725752  0.10247404  0.42127646     0.62440
H666        H  0.62056758  0.12650037  0.35954479     0.13130
H667        H  0.87987797  0.11444417  0.41798111     0.13150
C668        C  0.85338077  0.12911853  0.35732407     0.62670
F669        F  0.70591436  0.11747742  0.40090433    -0.22490
F670        F  0.65176840  0.02879383  0.42995902    -0.19820
F671        F  0.65885843  0.14981534  0.44762874    -0.19500
F672        F  0.85298744  0.13310922  0.32473542    -0.19550
F673        F  0.81951538  0.19179978  0.36976395    -0.19870
F674        F  0.81024331  0.06604740  0.36483577    -0.22550
C675        C  0.53595130  0.15545725  0.63039116    -0.05390
C676        C  0.96675125  0.13874759  0.64508294     0.00540
C677        C  0.90256849  0.11720307  0.62639234    -0.08030
C678        C  0.91084667  0.10876286  0.59338043    -0.05410
C679        C  0.98171934  0.11895847  0.57866265     0.00510
C680        C  0.54434673  0.14762610  0.59730380    -0.07940
C681        C  0.62009934  0.16880034  0.58288521     0.62440
H682        H  0.58474055  0.17134533  0.64517555     0.13130
H683        H  0.86242360  0.08834735  0.57921690     0.13150
C684        C  0.82706957  0.09819988  0.64159846     0.62670
F685        F  0.66469363  0.21369180  0.60369080    -0.22490
F686        F  0.60925458  0.20866849  0.55566919    -0.19820
F687        F  0.65872093  0.10486927  0.57556556    -0.19500
F688        F  0.80199074  0.16063647  0.65794633    -0.19550
F689        F  0.83503475  0.04063878  0.66248903    -0.19870
F690        F  0.77230628  0.07519392  0.61928350    -0.22550
O691        O  0.55791617  0.91447865  0.53073960    -0.74030
O692        O  0.55457813  0.56866294  0.47105973    -0.74060
O693        O  0.55295786  0.56314080  0.53602796    -0.74120
O694        O  0.55414438  0.92039390  0.46541188    -0.74170
O695        O  0.92961008  0.90438549  0.46968610    -0.74100
O696        O  0.92822698  0.56549879  0.53071764    -0.74080
O697        O  0.93045491  0.55233144  0.46530003    -0.74050
O698        O  0.93327299  0.91731912  0.53516870    -0.74120
Ni699      Ni  0.55956193  0.99183608  0.50085643     1.25410
Ni700      Ni  0.92562656  0.48457860  0.50024659     1.25360
C701        C  0.49766374  0.89790032  0.54581218     0.88150
C702        C  0.99445996  0.57790251  0.45510545     0.88080
C703        C  0.48894066  0.58428248  0.54619287     0.88110
C704        C  0.99017898  0.89415859  0.45427178     0.88280
C705        C  0.99771216  0.00592929  0.74820539    -0.02090
C706        C  0.99377178  0.98486924  0.24971806    -0.02090
C707        C  0.96671121  0.85487345  0.31868736     0.03520
C708        C  0.00552366  0.90977810  0.30177921    -0.12630
C709        C  0.99527768  0.91016224  0.26862084     0.01020
C710        C  0.99165650  0.83584840  0.25391370    -0.11150
C711        C  0.97052435  0.77322493  0.27284346     0.03520
C712        C  0.93551294  0.79268264  0.30170801    -0.10570
H713        H  0.04033086  0.95211561  0.31458447     0.09110
H714        H  0.00655931  0.82727053  0.22928191     0.06640
H715        H  0.90887338  0.74929460  0.31536432     0.06490
O716        O  0.57544249  0.56903184  0.03352369    -0.74030
O717        O  0.92186904  0.58334007  0.97002492    -0.74060
O718        O  0.92604226  0.57893874  0.03540478    -0.74120
O719        O  0.56925001  0.56948573  0.96754122    -0.74170
O720        O  0.55911665  0.94514985  0.96833811    -0.74100
O721        O  0.90721184  0.95529011  0.03094630    -0.74080
O722        O  0.91084050  0.95878350  0.96559147    -0.74050
O723        O  0.55546359  0.94536473  0.03332676    -0.74120
Ni724      Ni  0.99886171  0.57979685  0.00180007     1.25410
Ni725      Ni  0.98254800  0.94677853  0.99947129     1.25360
C726        C  0.58478230  0.00582843  0.04633443     0.88150
C727        C  0.89916216  0.02352434  0.95456245     0.88080
C728        C  0.89846529  0.51733213  0.04625868     0.88110
C729        C  0.58052014  0.00476011  0.95452229     0.88280
C730        C  0.85258727  0.96660770  0.17903207     0.03520
C731        C  0.91365814  0.99587541  0.19750609    -0.12630
C732        C  0.91729846  0.98326668  0.23032432     0.01020
C733        C  0.84458370  0.98085509  0.24519947    -0.11150
C734        C  0.77831212  0.96691380  0.22604095     0.03520
C735        C  0.79031901  0.93723194  0.19519150    -0.10570
H736        H  0.95545723  0.03151143  0.18632632     0.09110
H737        H  0.83970495  0.99385207  0.27031353     0.06640
H738        H  0.74082325  0.91934170  0.18149766     0.06490
C739        C  0.00618892  0.62607364  0.32059656     0.03520
C740        C  0.04003939  0.68645569  0.30514018    -0.12630
C741        C  0.01200248  0.70009632  0.27442111     0.01020
C742        C  0.99640739  0.63416048  0.25477686    -0.11150
C743        C  0.99229250  0.56169275  0.26917776     0.03520
C744        C  0.97733608  0.56555481  0.30193233    -0.10570
H745        H  0.06424748  0.73268115  0.31958537     0.09110
H746        H  0.98516990  0.63897749  0.22964923     0.06640
H747        H  0.94311416  0.52321064  0.31327217     0.06490
C748        C  0.62908470  0.01638940  0.18167640     0.03520
C749        C  0.69081805  0.04730301  0.19948221    -0.12630
C750        C  0.70747183  0.01186042  0.22816776     0.01020
C751        C  0.64305158  0.99027701  0.24629387    -0.11150
C752        C  0.56988338  0.98527068  0.23105737     0.03520
C753        C  0.57295064  0.97663467  0.19787140    -0.10570
H754        H  0.73659941  0.07434511  0.18661964     0.09110
H755        H  0.64975074  0.97534457  0.27082106     0.06640
H756        H  0.53222104  0.94115359  0.18452241     0.06490
C757        C  0.86924269  0.03028379  0.81867080     0.03520
C758        C  0.92210213  0.99206522  0.80088767    -0.12630
C759        C  0.92276658  0.00113531  0.76771788     0.01020
C760        C  0.84848414  0.00377030  0.75358462    -0.11150
C761        C  0.78777850  0.02657473  0.77315961     0.03520
C762        C  0.81024278  0.06166078  0.80237985    -0.10570
H763        H  0.96437251  0.96130992  0.81304416     0.09110
H764        H  0.83872997  0.98863075  0.72875806     0.06640
H765        H  0.76949940  0.09107927  0.81608536     0.06490
C766        C  0.02693999  0.86279208  0.68010137     0.03520
C767        C  0.99093327  0.92043156  0.69622034    -0.12630
C768        C  0.99759359  0.92798957  0.72946433     0.01020
C769        C  0.00011803  0.85728501  0.74498347    -0.11150
C770        C  0.01979807  0.79157027  0.72718505     0.03520
C771        C  0.05466616  0.80488788  0.69781713    -0.10570
H772        H  0.95578780  0.95599095  0.68272740     0.09110
H773        H  0.98444827  0.85311517  0.76961763     0.06640
H774        H  0.07936321  0.75861316  0.68513415     0.06490
C775        C  0.96494680  0.63852196  0.68014999     0.03520
C776        C  0.00162530  0.58328626  0.69631182    -0.12630
C777        C  0.99665957  0.58092269  0.72949528     0.01020
C778        C  0.99531021  0.65414187  0.74497363    -0.11150
C779        C  0.97476602  0.71711994  0.72714363     0.03520
C780        C  0.93827655  0.69927081  0.69774683    -0.10570
H781        H  0.03617436  0.54571820  0.68292693     0.09110
H782        H  0.01261719  0.66236145  0.76956745     0.06640
H783        H  0.91308649  0.74365806  0.68495148     0.06490
C784        C  0.63172425  0.00662093  0.81946170     0.03520
C785        C  0.57689352  0.03619184  0.80011863    -0.12630
C786        C  0.57387708  0.01431327  0.76759400     0.01020
C787        C  0.64698651  0.00558501  0.75370079    -0.11150
C788        C  0.70891147  0.98959473  0.77400763     0.03520
C789        C  0.68821475  0.96684147  0.80460554    -0.10570
H790        H  0.53482848  0.07030259  0.81096993     0.09110
H791        H  0.65504278  0.01158451  0.72848236     0.06640
H792        H  0.72890479  0.94053123  0.81936555     0.06490
C793        C  0.90289300  0.09295566  0.90479154    -0.05390
C794        C  0.87422392  0.02996314  0.92093974     0.00540
C795        C  0.83748324  0.47009849  0.90308726    -0.08030
C796        C  0.83953640  0.47127356  0.86969619    -0.05410
C797        C  0.87117562  0.03289421  0.85376552     0.00530
C798        C  0.90040869  0.09625541  0.87156430    -0.07940
C799        C  0.93192366  0.16776080  0.85708231     0.62440
H800        H  0.93073323  0.13955434  0.91810254     0.13130
H801        H  0.81708957  0.42309189  0.85587145     0.13150
C802        C  0.79389836  0.40659091  0.91887107     0.62670
F803        F  0.00829629  0.67389147  0.86336501    -0.22490
F804        F  0.89809043  0.72916980  0.87080830    -0.19820
F805        F  0.92156074  0.17031965  0.82461971    -0.19500
F806        F  0.75320795  0.43498372  0.94403817    -0.19550
F807        F  0.84234589  0.85436762  0.92990005    -0.19870
F808        F  0.74352313  0.86968017  0.89775564    -0.22550
C809        C  0.83842257  0.94286563  0.08849706    -0.05390
C810        C  0.86638420  0.01366511  0.07898988     0.00540
C811        C  0.87891434  0.57149457  0.10275220    -0.08030
C812        C  0.86586027  0.55496399  0.13476684    -0.05410
C813        C  0.84849795  0.98151862  0.14430910     0.00530
C814        C  0.83370804  0.92448700  0.12069305    -0.07940
C815        C  0.82139106  0.84299112  0.12902700     0.62440
H816        H  0.82698259  0.89927037  0.07041668     0.13130
H817        H  0.87439770  0.59860430  0.15307423     0.13150
C818        C  0.91025514  0.64909662  0.09514036     0.62670
F819        F  0.82048364  0.79641739  0.10225451    -0.22490
F820        F  0.75318096  0.33147925  0.14357051    -0.19820
F821        F  0.87877716  0.82266321  0.14913943    -0.19500
F822        F  0.86452726  0.67981580  0.07259055    -0.19550
F823        F  0.48266139  0.14499497  0.08378422    -0.19870
F824        F  0.91412378  0.69644369  0.12173371    -0.22550
C825        C  0.63820298  0.56476323  0.90774710    -0.05390
C826        C  0.60714013  0.99927181  0.92104273     0.00540
C827        C  0.58912863  0.93545493  0.90045420    -0.08030
C828        C  0.59964869  0.94175347  0.86768175    -0.05410
C829        C  0.62525266  0.00861726  0.85445988     0.00530
C830        C  0.64553011  0.57172382  0.87473722    -0.07940
C831        C  0.67586129  0.64698198  0.86334353     0.62440
H832        H  0.65329887  0.61282457  0.92329618     0.13130
H833        H  0.58588042  0.89442017  0.85156476     0.13150
C834        C  0.55701745  0.86081342  0.91195241     0.62670
F835        F  0.64571437  0.70489437  0.88090656    -0.22490
F836        F  0.65917612  0.65779516  0.83176493    -0.19820
F837        F  0.75290366  0.15232199  0.86804592    -0.19500
F838        F  0.98737826  0.37007732  0.92528884    -0.19550
F839        F  0.10587544  0.83193822  0.93386687    -0.19870
F840        F  0.04632993  0.80816345  0.88741998    -0.22550
C841        C  0.63012566  0.07506692  0.09546701    -0.05390
C842        C  0.61842117  0.00523826  0.07909366     0.00540
C843        C  0.62205998  0.43872689  0.09666915    -0.08030
C844        C  0.62635046  0.44519514  0.13007288    -0.05410
C845        C  0.62871621  0.01534572  0.14641752     0.00530
C846        C  0.63131679  0.08152245  0.12883049    -0.07940
C847        C  0.63167294  0.16029988  0.14364329     0.62440
H848        H  0.63076902  0.12628231  0.08226219     0.13130
H849        H  0.62534221  0.39486714  0.14382223     0.13150
C850        C  0.61885261  0.36091441  0.08079584     0.62670
F851        F  0.57692315  0.70070516  0.12914310    -0.22490
F852        F  0.70175476  0.69444639  0.13889827    -0.19820
F853        F  0.61662646  0.16303989  0.17571421    -0.19500
F854        F  0.66271167  0.36030709  0.05382518    -0.19550
F855        F  0.54484223  0.83917700  0.07300215    -0.19870
F856        F  0.64671230  0.80832192  0.10058261    -0.22550
C857        C  0.91277675  0.87581856  0.40517581    -0.05390
C858        C  0.98256893  0.86542811  0.42072901     0.00540
C859        C  0.54478620  0.84322365  0.40237398    -0.08030
C860        C  0.53773684  0.84153120  0.36908043    -0.05410
C861        C  0.96921205  0.85603238  0.35378269     0.00530
C862        C  0.90492965  0.87114086  0.37194256    -0.07940
C863        C  0.82936037  0.88561556  0.35619362     0.62440
H864        H  0.86474619  0.89181418  0.41908372     0.13130
H865        H  0.58655951  0.83006683  0.35480322     0.13150
C866        C  0.61792813  0.82019270  0.41750008     0.62670
F867        F  0.77670341  0.90890600  0.37800726    -0.22490
F868        F  0.80049077  0.82084986  0.34087908    -0.19820
F869        F  0.83849439  0.94068748  0.33408402    -0.19500
F870        F  0.60248850  0.78058138  0.44450155    -0.19550
F871        F  0.66343011  0.88275662  0.42557029    -0.19870
F872        F  0.65748781  0.77468822  0.39693766    -0.22550
C873        C  0.57752588  0.88077714  0.59348388    -0.05390
C874        C  0.00611633  0.86826857  0.57839680     0.00540
C875        C  0.94438153  0.84186829  0.59672055    -0.08030
C876        C  0.95410731  0.83843041  0.62985921    -0.05410
C877        C  0.02382808  0.85740695  0.64494017     0.00530
C878        C  0.58723463  0.87650556  0.62651877    -0.07940
C879        C  0.66361161  0.89682432  0.64201977     0.62440
H880        H  0.62535473  0.89940541  0.57958854     0.13130
H881        H  0.90596344  0.82418917  0.64438070     0.13150
C882        C  0.86815370  0.81868221  0.58188016     0.62670
F883        F  0.71731599  0.91735960  0.61998894    -0.22490
F884        F  0.68925627  0.83586698  0.65781514    -0.19820
F885        F  0.65704101  0.95654551  0.66345553    -0.19500
F886        F  0.87804140  0.77554759  0.55446408    -0.19550
F887        F  0.82912424  0.88168105  0.57477588    -0.19870
F888        F  0.82454052  0.77614395  0.60226145    -0.22550
C889        C  0.56856302  0.62458489  0.37283555    -0.05390
C890        C  0.00065757  0.62645821  0.35571453     0.00540
C891        C  0.93133470  0.62477907  0.37237599    -0.08030
C892        C  0.93309098  0.61755410  0.40550933    -0.05410
C893        C  0.00059701  0.60814646  0.42247138     0.00530
C894        C  0.57049326  0.61382088  0.40578950    -0.07940
C895        C  0.64725751  0.60247242  0.42127398     0.62440
H896        H  0.62056638  0.62649666  0.35954227     0.13130
H897        H  0.87987796  0.61444104  0.41797936     0.13150
C898        C  0.85337972  0.62911839  0.35732257     0.62670
F899        F  0.70591381  0.61747634  0.40090170    -0.22490
F900        F  0.65176953  0.52879247  0.42995672    -0.19820
F901        F  0.65885814  0.64981426  0.44762610    -0.19500
F902        F  0.85298554  0.63311107  0.32473399    -0.19550
F903        F  0.81951588  0.69179968  0.36976329    -0.19870
F904        F  0.81024133  0.56604758  0.36483380    -0.22550
C905        C  0.53595879  0.65546075  0.63038887    -0.05390
C906        C  0.96675981  0.63874914  0.64508090     0.00540
C907        C  0.90257661  0.61720359  0.62639080    -0.08030
C908        C  0.91085343  0.60876472  0.59337885    -0.05410
C909        C  0.98172544  0.61896128  0.57866065     0.00510
C910        C  0.54435340  0.64762908  0.59730150    -0.07940
C911        C  0.62010587  0.66880237  0.58288257     0.62440
H912        H  0.58474784  0.67135090  0.64517313     0.13130
H913        H  0.86242998  0.58834890  0.57921564     0.13150
C914        C  0.82707883  0.59819776  0.64159741     0.62670
F915        F  0.66470066  0.71369428  0.60368780    -0.22490
F916        F  0.60926100  0.70866957  0.55566631    -0.19820
F917        F  0.65872699  0.60487077  0.57556326    -0.19500
F918        F  0.80199888  0.66063298  0.65794589    -0.19550
F919        F  0.83504671  0.54063620  0.66248754    -0.19870
F920        F  0.77231502  0.57519106  0.61928277    -0.22550
loop_ 
_geom_bond_atom_site_label_1 
_geom_bond_atom_site_label_2 
_geom_bond_distance 
_geom_bond_site_symmetry_2 
_ccdc_geom_bond_type 
O1           Ni9   1.896       .  S
O1           C11   1.277   1_455  A
O2         Ni239   1.891   1_545  S
O2          C472   1.272   1_455  A
O3         Ni239   1.929   1_545  S
O3           C13   1.284   1_455  A
O4           Ni9   1.930       .  S
O4          C474   1.284   1_455  A
O5         Ni240   1.897       .  S
O5           C14   1.277       .  A
O6          Ni10   1.899   1_545  S
O6          C473   1.277       .  A
O7          Ni10   1.934   1_545  S
O7           C12   1.287       .  A
O8         Ni240   1.934       .  S
O8          C471   1.285       .  A
Ni9         O232   1.891       .  S
Ni9         O233   1.929       .  S
Ni9        Ni700   2.369   1_455  S
Ni10        O235   1.897       .  S
Ni10        O238   1.934       .  S
Ni10       Ni699   2.369       .  S
C11         O468   1.285       .  A
C11         C644   1.494   1_655  S
C12         O462   1.272       .  A
C12         C203   1.496       .  S
C13         O466   1.277       .  A
C13         C679   1.492       .  S
C14         O464   1.284       .  A
C14         C168   1.490       .  S
C15          C69   1.570       .  S
C15          C78   1.576       .  S
C15         C317   1.574       .  S
C15         C556   1.567       .  S
C16          C19   1.574       .  S
C16          C42   1.572       .  S
C16         C283   1.575       .  S
C16         C522   1.568       .  S
C17         C171   1.478       .  S
C17          C18   1.392       .  A
C17          C22   1.390       .  A
C18          C19   1.407       .  A
C18          H23   1.080       .  S
C19          C20   1.443       .  A
C20          C21   1.432       .  A
C20          H24   1.082       .  S
C21          C51   1.526       .  S
C21          C22   1.412       .  A
C22          H25   1.075       .  S
O26        Ni494   1.913   1_455  S
O26         C266   1.281       .  A
O27         Ni34   1.903   1_556  S
O27         C267   1.279       .  A
O28         Ni34   1.926       .  S
O28          C38   1.283       .  A
O29        Ni494   1.929   1_456  S
O29         C269   1.286       .  A
O30        Ni495   1.899   1_455  S
O30          C39   1.273       .  A
O31         Ni35   1.899   1_554  S
O31         C268   1.278       .  A
O32         Ni35   1.922       .  S
O32          C37   1.282       .  A
O33        Ni495   1.914   1_454  S
O33          C36   1.280       .  A
Ni34        O486   1.913       .  S
Ni34        O489   1.929   1_554  S
Ni34       Ni265   2.375   1_544  S
Ni35        O490   1.899       .  S
Ni35        O493   1.914   1_556  S
Ni35       Ni264   2.375   1_556  S
C36         O256   1.281       .  A
C36         C152   1.497       .  S
C37         O257   1.279       .  A
C37         C104   1.488       .  S
C38         O261   1.278   1_545  A
C38         C350   1.500       .  S
C39         O259   1.286       .  A
C39         C136   1.494       .  S
C40         C123   1.497       .  S
C40          C41   1.397       .  A
C40          C45   1.395       .  A
C41          C42   1.409       .  A
C41          H46   1.077       .  S
C42          C43   1.438       .  A
C43          C44   1.425       .  A
C43          H47   1.081       .  S
C44          C60   1.519       .  S
C44          C45   1.409       .  A
C45          H48   1.075       .  S
C49         C200   1.484       .  S
C49          C50   1.393       .  A
C49          C54   1.390       .  A
C50          C51   1.412       .  A
C50          H55   1.079       .  S
C51          C52   1.431       .  A
C52          C53   1.444       .  A
C52          H56   1.082       .  S
C53         C246   1.575   1_545  S
C53          C54   1.408       .  A
C54          H57   1.075       .  S
C58         C155   1.485       .  S
C58          C59   1.401       .  A
C58          C63   1.394       .  A
C59          C60   1.415       .  A
C59          H64   1.085       .  S
C60          C61   1.426       .  A
C61          C62   1.437       .  A
C61          H65   1.082       .  S
C62         C476   1.568   1_455  S
C62          C63   1.404       .  A
C63          H66   1.079       .  S
C67         C107   1.478       .  S
C67          C68   1.393       .  A
C67          C72   1.390       .  A
C68          C69   1.412       .  A
C68          H73   1.080       .  S
C69          C70   1.440       .  A
C70          C71   1.427       .  A
C70          H74   1.082       .  S
C71          C98   1.520       .  S
C71          C72   1.408       .  A
C72          H75   1.073       .  S
C76         C187   1.481       .  S
C76          C77   1.394       .  A
C76          C81   1.395       .  A
C77          C78   1.406       .  A
C77          H82   1.077       .  S
C78          C79   1.440       .  A
C79          C80   1.428       .  A
C79          H83   1.081       .  S
C80          C89   1.519       .  S
C80          C81   1.412       .  A
C81          H84   1.079       .  S
C85         C216   1.478       .  S
C85          C86   1.393       .  A
C85          C90   1.395       .  A
C86          C87   1.404       .  A
C86          H91   1.077       .  S
C87         C245   1.574       .  S
C87          C88   1.441       .  A
C88          C89   1.428       .  A
C88          H92   1.081       .  S
C89          C90   1.411       .  A
C90          H93   1.080       .  S
C94         C139   1.480       .  S
C94          C95   1.391       .  A
C94          C99   1.394       .  A
C95          C96   1.412       .  A
C95         H100   1.078       .  S
C96         C475   1.567   1_455  S
C96          C97   1.439       .  A
C97          C98   1.426       .  A
C97         H101   1.082       .  S
C98          C99   1.412       .  A
C99         H102   1.078       .  S
C103        C104   1.411       .  A
C103        C108   1.403       .  A
C103        H110   1.084       .  S
C104        C335   1.416       .  A
C105        C112   1.518       .  S
C105        C106   1.408       .  A
C105        C334   1.416   1_565  A
C106        C337   1.406   1_565  A
C106        H111   1.081       .  S
C107        C108   1.411       .  A
C107        C336   1.406       .  A
C108        C109   1.518       .  S
C109        F115   1.380       .  S
C109        F343   1.373       .  S
C109        F344   1.384       .  S
C112        F116   1.384       .  S
C112        F347   1.379       .  S
C112        F348   1.383       .  S
F113        C339   1.373       .  S
F114        C339   1.384       .  S
F117        C342   1.379       .  S
F118        C342   1.383       .  S
C119        C120   1.408       .  A
C119        C124   1.408       .  A
C119        H126   1.082       .  S
C120        C268   1.500       .  S
C120        C351   1.422       .  A
C121        C128   1.514       .  S
C121        C122   1.409       .  A
C121        C350   1.422       .  A
C122        C353   1.404   1_545  A
C122        H127   1.082       .  S
C123        C124   1.414       .  A
C123        C352   1.404       .  A
C124        C125   1.513       .  S
C125        F129   1.378       .  S
C125        F131   1.383       .  S
C125        F360   1.372       .  S
C128        F132   1.382       .  S
C128        F134   1.380       .  S
C128        F823   1.379       .  S
F130        C355   1.372       .  S
F133        C818   1.379       .  S
C135        C140   1.407       .  A
C135        C366   1.405   1_545  A
C135        H142   1.084       .  S
C136        C137   1.431       .  A
C136        C365   1.405       .  A
C137        C144   1.520       .  S
C137        C138   1.403       .  A
C138        C139   1.392       .  A
C138        H143   1.084       .  S
C139        C370   1.421       .  A
C140        C141   1.518       .  S
C140        C369   1.421       .  A
C141        F145   1.380       .  S
C141        F146   1.381       .  S
C141        F377   1.375       .  S
C144        F838   1.375   1_455  S
C144        F609   1.383       .  S
C144        F610   1.379       .  S
F147        C371   1.375       .  S
F148        C834   1.375       .  S
F149        C604   1.383       .  S
F150        C604   1.379       .  S
C151        C152   1.410       .  A
C151        C156   1.406       .  A
C151        H158   1.084       .  S
C152        C383   1.421       .  A
C153        C160   1.519       .  S
C153        C154   1.409       .  A
C153        C382   1.421   1_565  A
C154        C385   1.406   1_565  A
C154        H159   1.083       .  S
C155        C156   1.412       .  A
C155        C384   1.406       .  A
C156        C157   1.518       .  S
C157        F163   1.380       .  S
C157        F391   1.380       .  S
C157        F392   1.379       .  S
C160        F164   1.384       .  S
C160        F395   1.384       .  S
C160        F396   1.377       .  S
F161        C387   1.380       .  S
F162        C387   1.379       .  S
F165        C390   1.384       .  S
F166        C390   1.377       .  S
C167        C168   1.414       .  A
C167        C172   1.405       .  A
C167        H174   1.082       .  S
C168        C629   1.416       .  A
C169        C176   1.515       .  S
C169        C170   1.406       .  A
C169        C628   1.416   1_455  A
C170        C631   1.405   1_455  A
C170        H175   1.082       .  S
C171        C172   1.410       .  A
C171        C630   1.405       .  A
C172        C173   1.522       .  S
C173        F177   1.384       .  S
C173        F178   1.380       .  S
C173        F179   1.380       .  S
C176        F180   1.382       .  S
C176        F181   1.379       .  S
C176        F182   1.385       .  S
C183        C188   1.405       .  A
C183        C644   1.414       .  A
C183        H190   1.082       .  S
C184        C471   1.494       .  S
C184        C185   1.418       .  A
C184        C643   1.414       .  A
C185        C192   1.516       .  S
C185        C186   1.408       .  A
C186        C187   1.405       .  A
C186        H191   1.081       .  S
C187        C648   1.408       .  A
C188        C189   1.519       .  S
C188        C647   1.408       .  A
C189        F193   1.383       .  S
C189        F194   1.382       .  S
C189        F195   1.383       .  S
C192        F196   1.384       .  S
C192        F197   1.382       .  S
C192        F198   1.384       .  S
C199        C204   1.408       .  A
C199        C660   1.397       .  A
C199        H206   1.083       .  S
C200        C201   1.421       .  A
C200        C659   1.397       .  A
C201        C208   1.518       .  S
C201        C202   1.406       .  A
C202        C203   1.404       .  A
C202        H207   1.084       .  S
C203        C664   1.432       .  A
C204        C205   1.525       .  S
C204        C663   1.432       .  A
C205        F209   1.378       .  S
C205        F210   1.380       .  S
C205        F211   1.381       .  S
C208        F212   1.377       .  S
C208        F213   1.382       .  S
C208        F214   1.379       .  S
C215        C220   1.407       .  A
C215        C676   1.404   1_455  A
C215        H222   1.081       .  S
C216        C217   1.407       .  A
C216        C675   1.404       .  A
C217        C224   1.519       .  S
C217        C218   1.404       .  A
C218        C219   1.414       .  A
C218        H223   1.082       .  S
C219        C473   1.492       .  S
C219        C680   1.419       .  A
C220        C221   1.517       .  S
C220        C679   1.419   1_455  A
C221        F225   1.384       .  S
C221        F226   1.384       .  S
C221        F227   1.382       .  S
C224        F228   1.382       .  S
C224        F229   1.383       .  S
C224        F230   1.383       .  S
O231       Ni239   1.896       .  S
O231        C241   1.277   1_455  A
O232        C702   1.272   1_455  A
O233        C243   1.284   1_455  A
O234       Ni239   1.930       .  S
O234        C704   1.284   1_455  A
O235        C244   1.277       .  A
O236       Ni240   1.899       .  S
O236        C703   1.277       .  A
O237       Ni240   1.934       .  S
O237        C242   1.287       .  A
O238        C701   1.285       .  A
Ni239      Ni470   2.369   1_455  S
Ni240      Ni469   2.369       .  S
C241        O698   1.285       .  A
C241        C874   1.494   1_655  S
C242        O692   1.272       .  A
C242        C433   1.496       .  S
C243        O696   1.277       .  A
C243        C909   1.492       .  S
C244        O694   1.284       .  A
C244        C398   1.490       .  S
C245        C299   1.570       .  S
C245        C308   1.576   1_545  S
C245        C786   1.567       .  S
C246        C249   1.574       .  S
C246        C272   1.572       .  S
C246        C752   1.568       .  S
C247        C401   1.478       .  S
C247        C248   1.392       .  A
C247        C252   1.390       .  A
C248        C249   1.407       .  A
C248        H253   1.080       .  S
C249        C250   1.443       .  A
C250        C251   1.432       .  A
C250        H254   1.082       .  S
C251        C281   1.526       .  S
C251        C252   1.412       .  A
C252        H255   1.075       .  S
O256       Ni724   1.913   1_455  S
O257       Ni264   1.903   1_556  S
O258       Ni264   1.926       .  S
O258        C268   1.283       .  A
O259       Ni724   1.929   1_456  S
O260       Ni725   1.899   1_455  S
O260        C269   1.273   1_565  A
O261       Ni265   1.899   1_554  S
O262       Ni265   1.922       .  S
O262        C267   1.282   1_565  A
O263       Ni725   1.914   1_454  S
O263        C266   1.280   1_565  A
Ni264       O716   1.913       .  S
Ni264       O719   1.929   1_554  S
Ni265       O720   1.899       .  S
Ni265       O723   1.914   1_556  S
C266        C382   1.497       .  S
C267        C334   1.488       .  S
C269        C366   1.494   1_545  S
C270        C353   1.497       .  S
C270        C271   1.397       .  A
C270        C275   1.395       .  A
C271        C272   1.409       .  A
C271        H276   1.077   1_565  S
C272        C273   1.438       .  A
C273        C274   1.425       .  A
C273        H277   1.081       .  S
C274        C290   1.519   1_565  S
C274        C275   1.409       .  A
C275        H278   1.075       .  S
C279        C430   1.484       .  S
C279        C280   1.393       .  A
C279        C284   1.390       .  A
C280        C281   1.412       .  A
C280        H285   1.079       .  S
C281        C282   1.431       .  A
C282        C283   1.444       .  A
C282        H286   1.082       .  S
C283        C284   1.408       .  A
C284        H287   1.075       .  S
C288        C385   1.485       .  S
C288        C289   1.401       .  A
C288        C293   1.394   1_545  A
C289        C290   1.415       .  A
C289        H294   1.085       .  S
C290        C291   1.426   1_545  A
C291        C292   1.437       .  A
C291        H295   1.082       .  S
C292        C706   1.568   1_455  S
C292        C293   1.404       .  A
C293        H296   1.079       .  S
C297        C337   1.478       .  S
C297        C298   1.393   1_545  A
C297        C302   1.390       .  A
C298        C299   1.412   1_565  A
C298        H303   1.080       .  S
C299        C300   1.440       .  A
C300        C301   1.427       .  A
C300        H304   1.082   1_545  S
C301        C328   1.520   1_545  S
C301        C302   1.408       .  A
C302        H305   1.073       .  S
C306        C417   1.481       .  S
C306        C307   1.394       .  A
C306        C311   1.395       .  A
C307        C308   1.406       .  A
C307        H312   1.077       .  S
C308        C309   1.440       .  A
C309        C310   1.428       .  A
C309        H313   1.081       .  S
C310        C319   1.519       .  S
C310        C311   1.412       .  A
C311        H314   1.079       .  S
C315        C446   1.478       .  S
C315        C316   1.393       .  A
C315        C320   1.395       .  A
C316        C317   1.404       .  A
C316        H321   1.077       .  S
C317        C318   1.441       .  A
C318        C319   1.428       .  A
C318        H322   1.081       .  S
C319        C320   1.411       .  A
C320        H323   1.080       .  S
C324        C369   1.480       .  S
C324        C325   1.391       .  A
C324        C329   1.394   1_545  A
C325        C326   1.412       .  A
C325        H330   1.078       .  S
C326        C705   1.567   1_455  S
C326        C327   1.439       .  A
C327        C328   1.426   1_545  A
C327        H331   1.082       .  S
C328        C329   1.412       .  A
C329        H332   1.078       .  S
C333        C334   1.411       .  A
C333        C338   1.403       .  A
C333        H340   1.084       .  S
C335        C342   1.518       .  S
C335        C336   1.408       .  A
C336        H341   1.081       .  S
C337        C338   1.411       .  A
C338        C339   1.518       .  S
C339        F345   1.380       .  S
C342        F346   1.384       .  S
C349        C350   1.408   1_565  A
C349        C354   1.408       .  A
C349        H356   1.082       .  S
C351        C358   1.514       .  S
C351        C352   1.409       .  A
C352        H357   1.082       .  S
C353        C354   1.414       .  A
C354        C355   1.513       .  S
C355        F359   1.378       .  S
C355        F361   1.383       .  S
C358        F362   1.382       .  S
C358        F593   1.379       .  S
C358        F364   1.380       .  S
F363        C588   1.379       .  S
C365        C370   1.407       .  A
C365        H372   1.084       .  S
C366        C367   1.431       .  A
C367        C374   1.520       .  S
C367        C368   1.403       .  A
C368        C369   1.392   1_565  A
C368        H373   1.084       .  S
C370        C371   1.518       .  S
C371        F375   1.380       .  S
C371        F376   1.381       .  S
C374        F608   1.375   1_455  S
C374        F839   1.383       .  S
C374        F840   1.379       .  S
F378        C604   1.375       .  S
F379        C834   1.383       .  S
F380        C834   1.379       .  S
C381        C382   1.410       .  A
C381        C386   1.406       .  A
C381        H388   1.084       .  S
C383        C390   1.519       .  S
C383        C384   1.409       .  A
C384        H389   1.083       .  S
C385        C386   1.412       .  A
C386        C387   1.518       .  S
C387        F393   1.380       .  S
C390        F394   1.384       .  S
C397        C398   1.414       .  A
C397        C402   1.405       .  A
C397        H404   1.082       .  S
C398        C859   1.416       .  A
C399        C406   1.515       .  S
C399        C858   1.416   1_455  A
C399        C400   1.406       .  A
C400        C861   1.405   1_455  A
C400        H405   1.082       .  S
C401        C860   1.405       .  A
C401        C402   1.410       .  A
C402        C403   1.522       .  S
C403        F407   1.384       .  S
C403        F408   1.380       .  S
C403        F409   1.380       .  S
C406        F410   1.382       .  S
C406        F411   1.379       .  S
C406        F412   1.385       .  S
C413        C874   1.414       .  A
C413        C418   1.405       .  A
C413        H420   1.082       .  S
C414        C701   1.494       .  S
C414        C873   1.414       .  A
C414        C415   1.418       .  A
C415        C422   1.516       .  S
C415        C416   1.408       .  A
C416        C417   1.405       .  A
C416        H421   1.081       .  S
C417        C878   1.408       .  A
C418        C419   1.519       .  S
C418        C877   1.408       .  A
C419        F423   1.383       .  S
C419        F424   1.382       .  S
C419        F425   1.383       .  S
C422        F426   1.384       .  S
C422        F427   1.382       .  S
C422        F428   1.384       .  S
C429        C890   1.397       .  A
C429        C434   1.408       .  A
C429        H436   1.083       .  S
C430        C889   1.397       .  A
C430        C431   1.421       .  A
C431        C438   1.518       .  S
C431        C432   1.406       .  A
C432        C433   1.404       .  A
C432        H437   1.084       .  S
C433        C894   1.432       .  A
C434        C435   1.525       .  S
C434        C893   1.432       .  A
C435        F439   1.378       .  S
C435        F440   1.380       .  S
C435        F441   1.381       .  S
C438        F442   1.377       .  S
C438        F443   1.382       .  S
C438        F444   1.379       .  S
C445        C906   1.404   1_455  A
C445        C450   1.407       .  A
C445        H452   1.081       .  S
C446        C905   1.404       .  A
C446        C447   1.407       .  A
C447        C454   1.519       .  S
C447        C448   1.404       .  A
C448        C449   1.414       .  A
C448        H453   1.082       .  S
C449        C703   1.492       .  S
C449        C910   1.419       .  A
C450        C451   1.517       .  S
C450        C909   1.419   1_455  A
C451        F455   1.384       .  S
C451        F456   1.384       .  S
C451        F457   1.382       .  S
C454        F458   1.382       .  S
C454        F459   1.383       .  S
C454        F460   1.383       .  S
O461       Ni469   1.896       .  S
O461        C471   1.277       .  A
O462       Ni699   1.891   1_545  S
O463       Ni699   1.929   1_545  S
O463        C473   1.284       .  A
O464       Ni469   1.930       .  S
O465       Ni700   1.897       .  S
O465        C474   1.277       .  A
O466       Ni470   1.899   1_545  S
O467       Ni470   1.934   1_545  S
O467        C472   1.287       .  A
O468       Ni700   1.934       .  S
Ni469       O692   1.891       .  S
Ni469       O693   1.929       .  S
Ni470       O695   1.897       .  S
Ni470       O698   1.934       .  S
C472        C663   1.496   1_655  S
C474        C628   1.490       .  S
C475        C529   1.570       .  S
C475        C538   1.576       .  S
C475        C777   1.574       .  S
C476        C479   1.574       .  S
C476        C502   1.572       .  S
C476        C743   1.575       .  S
C477        C631   1.478       .  S
C477        C478   1.392   1_655  A
C477        C482   1.390       .  A
C478        C479   1.407   1_455  A
C478        H483   1.080       .  S
C479        C480   1.443       .  A
C480        C481   1.432       .  A
C480        H484   1.082   1_655  S
C481        C511   1.526   1_655  S
C481        C482   1.412       .  A
C482        H485   1.075       .  S
O486        C726   1.281       .  A
O487       Ni494   1.903   1_556  S
O487        C727   1.279       .  A
O488       Ni494   1.926       .  S
O488        C498   1.283       .  A
O489        C729   1.286       .  A
O490        C499   1.273       .  A
O491       Ni495   1.899   1_554  S
O491        C728   1.278       .  A
O492       Ni495   1.922       .  S
O492        C497   1.282       .  A
O493        C496   1.280       .  A
Ni494      Ni725   2.375   1_544  S
Ni495      Ni724   2.375   1_556  S
C496        O716   1.281       .  A
C496        C612   1.497       .  S
C497        O717   1.279       .  A
C497        C564   1.488       .  S
C498        O721   1.278   1_545  A
C498        C810   1.500       .  S
C499        O719   1.286       .  A
C499        C596   1.494       .  S
C500        C583   1.497       .  S
C500        C501   1.397       .  A
C500        C505   1.395       .  A
C501        C502   1.409       .  A
C501        H506   1.077       .  S
C502        C503   1.438       .  A
C503        C504   1.425       .  A
C503        H507   1.081       .  S
C504        C520   1.519       .  S
C504        C505   1.409       .  A
C505        H508   1.075       .  S
C509        C660   1.484       .  S
C509        C510   1.393       .  A
C509        C514   1.390   1_455  A
C510        C511   1.412       .  A
C510        H515   1.079       .  S
C511        C512   1.431   1_455  A
C512        C513   1.444       .  A
C512        H516   1.082       .  S
C513        C706   1.575   1_545  S
C513        C514   1.408       .  A
C514        H517   1.075       .  S
C518        C615   1.485       .  S
C518        C519   1.401       .  A
C518        C523   1.394       .  A
C519        C520   1.415       .  A
C519        H524   1.085       .  S
C520        C521   1.426       .  A
C521        C522   1.437       .  A
C521        H525   1.082       .  S
C522        C523   1.404       .  A
C523        H526   1.079       .  S
C527        C567   1.478       .  S
C527        C528   1.393       .  A
C527        C532   1.390       .  A
C528        C529   1.412       .  A
C528        H533   1.080       .  S
C529        C530   1.440       .  A
C530        C531   1.427       .  A
C530        H534   1.082       .  S
C531        C558   1.520       .  S
C531        C532   1.408       .  A
C532        H535   1.073       .  S
C536        C647   1.481       .  S
C536        C537   1.394   1_455  A
C536        C541   1.395       .  A
C537        C538   1.406       .  A
C537        H542   1.077       .  S
C538        C539   1.440   1_655  A
C539        C540   1.428       .  A
C539        H543   1.081   1_455  S
C540        C549   1.519   1_455  S
C540        C541   1.412       .  A
C541        H544   1.079       .  S
C545        C676   1.478       .  S
C545        C546   1.393   1_655  A
C545        C550   1.395       .  A
C546        C547   1.404   1_455  A
C546        H551   1.077       .  S
C547        C705   1.574       .  S
C547        C548   1.441       .  A
C548        C549   1.428       .  A
C548        H552   1.081   1_655  S
C549        C550   1.411       .  A
C550        H553   1.080       .  S
C554        C599   1.480       .  S
C554        C555   1.391       .  A
C554        C559   1.394       .  A
C555        C556   1.412       .  A
C555        H560   1.078       .  S
C556        C557   1.439       .  A
C557        C558   1.426       .  A
C557        H561   1.082       .  S
C558        C559   1.412       .  A
C559        H562   1.078       .  S
C563        C564   1.411       .  A
C563        C568   1.403       .  A
C563        H570   1.084       .  S
C564        C795   1.416       .  A
C565        C572   1.518       .  S
C565        C794   1.416   1_565  A
C565        C566   1.408       .  A
C566        C797   1.406   1_565  A
C566        H571   1.081       .  S
C567        C796   1.406       .  A
C567        C568   1.411       .  A
C568        C569   1.518       .  S
C569        F803   1.373   1_655  S
C569        F804   1.384       .  S
C569        F575   1.380       .  S
C572        F576   1.384       .  S
C572        F807   1.379       .  S
C572        F808   1.383       .  S
F573        C799   1.373   1_455  S
F574        C799   1.384       .  S
F577        C802   1.379       .  S
F578        C802   1.383       .  S
C579        C580   1.408       .  A
C579        C584   1.408       .  A
C579        H586   1.082       .  S
C580        C728   1.500       .  S
C580        C811   1.422       .  A
C581        C588   1.514       .  S
C581        C810   1.422       .  A
C581        C582   1.409       .  A
C582        C813   1.404   1_545  A
C582        H587   1.082       .  S
C583        C812   1.404       .  A
C583        C584   1.414       .  A
C584        C585   1.513       .  S
C585        F589   1.378       .  S
C585        F820   1.372       .  S
C585        F591   1.383       .  S
C588        F592   1.382       .  S
C588        F594   1.380       .  S
F590        C815   1.372       .  S
C595        C826   1.405   1_545  A
C595        C600   1.407       .  A
C595        H602   1.084       .  S
C596        C825   1.405       .  A
C596        C597   1.431       .  A
C597        C604   1.520       .  S
C597        C598   1.403       .  A
C598        C599   1.392       .  A
C598        H603   1.084       .  S
C599        C830   1.421       .  A
C600        C601   1.518       .  S
C600        C829   1.421       .  A
C601        F605   1.380       .  S
C601        F606   1.381       .  S
C601        F837   1.375       .  S
F607        C831   1.375       .  S
C611        C612   1.410       .  A
C611        C616   1.406       .  A
C611        H618   1.084       .  S
C612        C843   1.421       .  A
C613        C620   1.519       .  S
C613        C842   1.421   1_565  A
C613        C614   1.409       .  A
C614        C845   1.406   1_565  A
C614        H619   1.083       .  S
C615        C844   1.406       .  A
C615        C616   1.412       .  A
C616        C617   1.518       .  S
C617        F851   1.380       .  S
C617        F852   1.379       .  S
C617        F623   1.380       .  S
C620        F624   1.384       .  S
C620        F855   1.384       .  S
C620        F856   1.377       .  S
F621        C847   1.380       .  S
F622        C847   1.379       .  S
F625        C850   1.384       .  S
F626        C850   1.377       .  S
C627        C628   1.414       .  A
C627        C632   1.405       .  A
C627        H634   1.082       .  S
C629        C636   1.515       .  S
C629        C630   1.406       .  A
C630        H635   1.082       .  S
C631        C632   1.410       .  A
C632        C633   1.522       .  S
C633        F637   1.384       .  S
C633        F638   1.380       .  S
C633        F639   1.380       .  S
C636        F640   1.382       .  S
C636        F641   1.379       .  S
C636        F642   1.385       .  S
C643        C648   1.405       .  A
C643        H650   1.082       .  S
C644        C645   1.418   1_455  A
C645        C652   1.516       .  S
C645        C646   1.408       .  A
C646        C647   1.405   1_655  A
C646        H651   1.081       .  S
C648        C649   1.519       .  S
C649        F653   1.383       .  S
C649        F654   1.382       .  S
C649        F655   1.383       .  S
C652        F656   1.384       .  S
C652        F657   1.382       .  S
C652        F658   1.384       .  S
C659        C664   1.408       .  A
C659        H666   1.083       .  S
C660        C661   1.421   1_455  A
C661        C668   1.518       .  S
C661        C662   1.406       .  A
C662        C663   1.404   1_655  A
C662        H667   1.084       .  S
C664        C665   1.525       .  S
C665        F669   1.378       .  S
C665        F670   1.380       .  S
C665        F671   1.381       .  S
C668        F672   1.377       .  S
C668        F673   1.382       .  S
C668        F674   1.379       .  S
C675        C680   1.407       .  A
C675        H682   1.081       .  S
C676        C677   1.407       .  A
C677        C684   1.519       .  S
C677        C678   1.404       .  A
C678        C679   1.414       .  A
C678        H683   1.082       .  S
C680        C681   1.517       .  S
C681        F685   1.384       .  S
C681        F686   1.384       .  S
C681        F687   1.382       .  S
C684        F688   1.382       .  S
C684        F689   1.383       .  S
C684        F690   1.383       .  S
O691       Ni699   1.896       .  S
O691        C701   1.277       .  A
O693        C703   1.284       .  A
O694       Ni699   1.930       .  S
O695        C704   1.277       .  A
O696       Ni700   1.899       .  S
O697       Ni700   1.934       .  S
O697        C702   1.287       .  A
C702        C893   1.496   1_655  S
C704        C858   1.490       .  S
C705        C759   1.570       .  S
C705        C768   1.576   1_545  S
C706        C709   1.574       .  S
C706        C732   1.572       .  S
C707        C861   1.478       .  S
C707        C708   1.392   1_655  A
C707        C712   1.390       .  A
C708        C709   1.407   1_455  A
C708        H713   1.080       .  S
C709        C710   1.443       .  A
C710        C711   1.432       .  A
C710        H714   1.082   1_655  S
C711        C741   1.526   1_655  S
C711        C712   1.412       .  A
C712        H715   1.075       .  S
O717       Ni724   1.903   1_556  S
O718       Ni724   1.926       .  S
O718        C728   1.283       .  A
O720        C729   1.273   1_565  A
O721       Ni725   1.899   1_554  S
O722       Ni725   1.922       .  S
O722        C727   1.282   1_565  A
O723        C726   1.280   1_565  A
C726        C842   1.497       .  S
C727        C794   1.488       .  S
C729        C826   1.494   1_545  S
C730        C813   1.497       .  S
C730        C731   1.397       .  A
C730        C735   1.395       .  A
C731        C732   1.409       .  A
C731        H736   1.077   1_565  S
C732        C733   1.438       .  A
C733        C734   1.425       .  A
C733        H737   1.081       .  S
C734        C750   1.519   1_565  S
C734        C735   1.409       .  A
C735        H738   1.075       .  S
C739        C890   1.484       .  S
C739        C740   1.393       .  A
C739        C744   1.390   1_455  A
C740        C741   1.412       .  A
C740        H745   1.079       .  S
C741        C742   1.431   1_455  A
C742        C743   1.444       .  A
C742        H746   1.082       .  S
C743        C744   1.408       .  A
C744        H747   1.075       .  S
C748        C845   1.485       .  S
C748        C749   1.401       .  A
C748        C753   1.394   1_545  A
C749        C750   1.415       .  A
C749        H754   1.085       .  S
C750        C751   1.426   1_545  A
C751        C752   1.437       .  A
C751        H755   1.082       .  S
C752        C753   1.404       .  A
C753        H756   1.079       .  S
C757        C797   1.478       .  S
C757        C758   1.393   1_545  A
C757        C762   1.390       .  A
C758        C759   1.412   1_565  A
C758        H763   1.080       .  S
C759        C760   1.440       .  A
C760        C761   1.427       .  A
C760        H764   1.082   1_545  S
C761        C788   1.520   1_545  S
C761        C762   1.408       .  A
C762        H765   1.073       .  S
C766        C877   1.481       .  S
C766        C767   1.394   1_455  A
C766        C771   1.395       .  A
C767        C768   1.406       .  A
C767        H772   1.077       .  S
C768        C769   1.440   1_655  A
C769        C770   1.428       .  A
C769        H773   1.081   1_455  S
C770        C779   1.519   1_455  S
C770        C771   1.412       .  A
C771        H774   1.079       .  S
C775        C906   1.478       .  S
C775        C776   1.393   1_655  A
C775        C780   1.395       .  A
C776        C777   1.404   1_455  A
C776        H781   1.077       .  S
C777        C778   1.441       .  A
C778        C779   1.428       .  A
C778        H782   1.081   1_655  S
C779        C780   1.411       .  A
C780        H783   1.080       .  S
C784        C829   1.480       .  S
C784        C785   1.391       .  A
C784        C789   1.394   1_545  A
C785        C786   1.412       .  A
C785        H790   1.078       .  S
C786        C787   1.439       .  A
C787        C788   1.426   1_545  A
C787        H791   1.082       .  S
C788        C789   1.412       .  A
C789        H792   1.078       .  S
C793        C794   1.411       .  A
C793        C798   1.403       .  A
C793        H800   1.084       .  S
C795        C802   1.518       .  S
C795        C796   1.408       .  A
C796        H801   1.081       .  S
C797        C798   1.411       .  A
C798        C799   1.518       .  S
C799        F805   1.380       .  S
C802        F806   1.384       .  S
C809        C810   1.408   1_565  A
C809        C814   1.408       .  A
C809        H816   1.082       .  S
C811        C818   1.514       .  S
C811        C812   1.409       .  A
C812        H817   1.082       .  S
C813        C814   1.414       .  A
C814        C815   1.513       .  S
C815        F819   1.378       .  S
C815        F821   1.383       .  S
C818        F822   1.382       .  S
C818        F824   1.380       .  S
C825        C830   1.407       .  A
C825        H832   1.084       .  S
C826        C827   1.431       .  A
C827        C834   1.520       .  S
C827        C828   1.403       .  A
C828        C829   1.392   1_565  A
C828        H833   1.084       .  S
C830        C831   1.518       .  S
C831        F835   1.380       .  S
C831        F836   1.381       .  S
C841        C842   1.410       .  A
C841        C846   1.406       .  A
C841        H848   1.084       .  S
C843        C850   1.519       .  S
C843        C844   1.409       .  A
C844        H849   1.083       .  S
C845        C846   1.412       .  A
C846        C847   1.518       .  S
C847        F853   1.380       .  S
C850        F854   1.384       .  S
C857        C858   1.414       .  A
C857        C862   1.405       .  A
C857        H864   1.082       .  S
C859        C866   1.515       .  S
C859        C860   1.406       .  A
C860        H865   1.082       .  S
C861        C862   1.410       .  A
C862        C863   1.522       .  S
C863        F867   1.384       .  S
C863        F868   1.380       .  S
C863        F869   1.380       .  S
C866        F870   1.382       .  S
C866        F871   1.379       .  S
C866        F872   1.385       .  S
C873        C878   1.405       .  A
C873        H880   1.082       .  S
C874        C875   1.418   1_455  A
C875        C882   1.516       .  S
C875        C876   1.408       .  A
C876        C877   1.405   1_655  A
C876        H881   1.081       .  S
C878        C879   1.519       .  S
C879        F883   1.383       .  S
C879        F884   1.382       .  S
C879        F885   1.383       .  S
C882        F886   1.384       .  S
C882        F887   1.382       .  S
C882        F888   1.384       .  S
C889        C894   1.408       .  A
C889        H896   1.083       .  S
C890        C891   1.421   1_455  A
C891        C898   1.518       .  S
C891        C892   1.406       .  A
C892        C893   1.404   1_655  A
C892        H897   1.084       .  S
C894        C895   1.525       .  S
C895        F899   1.378       .  S
C895        F900   1.380       .  S
C895        F901   1.381       .  S
C898        F902   1.377       .  S
C898        F903   1.382       .  S
C898        F904   1.379       .  S
C905        C910   1.407       .  A
C905        H912   1.081       .  S
C906        C907   1.407       .  A
C907        C914   1.519       .  S
C907        C908   1.404       .  A
C908        C909   1.414       .  A
C908        H913   1.082       .  S
C910        C911   1.517       .  S
C911        F915   1.384       .  S
C911        F916   1.384       .  S
C911        F917   1.382       .  S
C914        F918   1.382       .  S
C914        F919   1.383       .  S
C914        F920   1.383       .  S
