geometry optimzed in LAMMPS
_audit_creation_date              2020-11-30 
_audit_creation_method            'lammps2cif' 
_symmetry_space_group_name_H-M    'P1' 
_symmetry_Int_Tables_number       1 
_symmetry_cell_setting            triclinic 
loop_ 
_symmetry_equiv_pos_as_xyz 
  x,y,z 
_cell_length_a                    48.04542458162417 
_cell_length_b                    48.131851406706524 
_cell_length_c                    47.90809889347376 
_cell_angle_alpha                 89.99161164189493 
_cell_angle_beta                  90.28997986597194 
_cell_angle_gamma                 89.92027218084 
loop_ 
_atom_site_label 
_atom_site_type_symbol 
_atom_site_fract_x 
_atom_site_fract_y 
_atom_site_fract_z 
_atom_site_charge 
N1          N  0.44173848  0.68033605  0.99701521    -0.27520
N2          N  0.45710271  0.65761665  0.99698105    -0.35380
C3          C  0.44061279  0.63532064  0.99857375     0.00820
C4          C  0.41326784  0.64416152  0.99977958     0.06850
C5          C  0.41469198  0.67300003  0.99882023    -0.06250
H6          H  0.44809866  0.61411899  0.99946767     0.07510
H7          H  0.39761636  0.68755487  0.00051664     0.08710
Cu8        Cu  0.49979119  0.65755734  0.99731511     0.44170
Cu9        Cu  0.46048023  0.71919743  0.99634829     0.41990
Cu10       Cu  0.53894838  0.71968925  0.00195596     0.43880
N11         N  0.54245689  0.65801322  0.99872042    -0.34910
N12         N  0.55774924  0.68071055  0.00014848    -0.29160
C13         C  0.58487948  0.67331836  0.99968368    -0.05260
C14         C  0.58641814  0.64447517  0.99809663     0.06950
C15         C  0.55904463  0.63572936  0.99751718     0.00750
H16         H  0.60199645  0.68787741  0.99968135     0.08400
H17         H  0.55160689  0.61455685  0.99617870     0.07480
N18         N  0.51304406  0.75450559  0.00173636    -0.36360
N19         N  0.48563773  0.75427077  0.99858754    -0.28540
C20         C  0.47628960  0.78058795  0.99797987    -0.03770
C21         C  0.49862106  0.79841633  0.00169563     0.04840
C22         C  0.52159369  0.78102393  0.00369716     0.02930
H23         H  0.45477727  0.78608388  0.99429337     0.08030
H24         H  0.54310190  0.78716790  0.00630910     0.06870
N25         N  0.70521331  0.53021215  0.00705315    -0.27520
N26         N  0.68268274  0.51513056  0.01113423    -0.35380
C27         C  0.66014966  0.53149215  0.00944925     0.01000
C28         C  0.66878847  0.55823313  0.00364422     0.06850
C29         C  0.69758298  0.55684085  0.00268852    -0.06250
H30         H  0.63894401  0.52422515  0.01139729     0.07510
H31         H  0.71176463  0.57359122  0.99787331     0.08710
Cu32       Cu  0.68315288  0.47249200  0.01437845     0.44170
Cu33       Cu  0.74413790  0.51178386  0.00470926     0.41990
Cu34       Cu  0.74416523  0.43475687  0.99466388     0.43880
N35         N  0.68371961  0.43014185  0.00846116    -0.34910
N36         N  0.70565164  0.41573099  0.00035587    -0.29160
C37         C  0.69780334  0.38913776  0.99596915    -0.05260
C38         C  0.66954047  0.38701742  0.00161383     0.06950
C39         C  0.66149282  0.41344455  0.00938822     0.00750
H40         H  0.71132047  0.37298082  0.98808722     0.08400
H41         H  0.64065707  0.42031244  0.01443096     0.07480
N42         N  0.77934286  0.46013594  0.99486768    -0.36360
N43         N  0.77926797  0.48721344  0.99969208    -0.28540
C44         C  0.80565288  0.49637847  0.00063304    -0.03770
C45         C  0.82339724  0.47427659  0.99547469     0.04840
C46         C  0.80585745  0.45159806  0.99217516     0.02930
H47         H  0.81127565  0.51748429  0.00582118     0.08030
H48         H  0.81191468  0.43025372  0.98853466     0.06870
N49         N  0.44195490  0.26486470  0.00341958    -0.27520
N50         N  0.45637180  0.28686857  0.01129310    -0.35380
C51         C  0.43949309  0.30902151  0.01207934     0.00820
C52         C  0.41299736  0.30069366  0.00455226     0.06850
C53         C  0.41523559  0.27248013  0.99912452    -0.06250
H54         H  0.44632922  0.33001739  0.01634907     0.07510
H55         H  0.39914210  0.25893034  0.99106977     0.08710
Cu56       Cu  0.49904048  0.28732513  0.01595758     0.44170
Cu57       Cu  0.46122910  0.22685528  0.99680417     0.41990
Cu58       Cu  0.53896905  0.22769776  0.99847692     0.43880
N59         N  0.54146735  0.28853629  0.00997900    -0.34910
N60         N  0.55661644  0.26691445  0.00247066    -0.29160
C61         C  0.58277200  0.27558089  0.99717597    -0.05260
C62         C  0.58374788  0.30413231  0.00112351     0.06950
C63         C  0.55731656  0.31140622  0.00974001     0.00750
H64         H  0.59948521  0.26232678  0.99002526     0.08400
H65         H  0.54985347  0.33199049  0.01485809     0.07480
N66         N  0.51427547  0.19223229  0.99706678    -0.36360
N67         N  0.48671779  0.19200733  0.99574303    -0.28540
C68         C  0.47786054  0.16552587  0.99562790    -0.03770
C69         C  0.50080074  0.14830638  0.99746674     0.04840
C70         C  0.52353596  0.16587093  0.99810865     0.02930
H71         H  0.45623431  0.15928604  0.99510373     0.08030
H72         H  0.54524796  0.15995785  0.99930194     0.06870
N73         N  0.29382624  0.53056893  0.99899708    -0.27520
N74         N  0.31641086  0.51498997  0.99894237    -0.35380
C75         C  0.33898179  0.53110650  0.00071107     0.00820
C76         C  0.33046136  0.55840666  0.00293390     0.06850
C77         C  0.30157004  0.55745254  0.00118984    -0.06250
H78         H  0.36010549  0.52331185  0.00056797     0.07510
H79         H  0.28732582  0.57484965  0.00216769     0.08710
Cu80       Cu  0.31601227  0.47252351  0.99913697     0.44170
Cu81       Cu  0.25476600  0.51195576  0.99720403     0.41990
Cu82       Cu  0.25440642  0.43294293  0.99961862     0.43880
N83         N  0.31619208  0.43005907  0.99904771    -0.34910
N84         N  0.29368833  0.41443257  0.99820560    -0.29160
C85         C  0.30168008  0.38756824  0.99621153    -0.05260
C86         C  0.33064403  0.38668552  0.99543437     0.06950
C87         C  0.33887773  0.41401886  0.99806544     0.00750
H88         H  0.28757046  0.37010907  0.99497457     0.08400
H89         H  0.35989861  0.42192284  0.99932746     0.07480
N90         N  0.21955281  0.45899360  0.00027812    -0.36360
N91         N  0.21972792  0.48645811  0.99825975    -0.28540
C92         C  0.19332231  0.49573490  0.99804618    -0.03770
C93         C  0.17548470  0.47330325  0.00087223     0.04840
C94         C  0.19299477  0.45036556  0.00192257     0.02930
H95         H  0.18777976  0.51731437  0.99525368     0.08030
H96         H  0.18690339  0.42881317  0.00373024     0.06870
N97         N  0.00159560  0.52948908  0.70641488    -0.27520
N98         N  0.99880622  0.51463722  0.68338988    -0.35380
C99         C  0.99604238  0.53173806  0.66147869     0.00820
C100        C  0.99686898  0.55879148  0.67102277     0.06850
C101        C  0.00083268  0.55670643  0.69963995    -0.06250
H102        H  0.99367700  0.52492462  0.64007507     0.07510
H103        H  0.00242497  0.57362148  0.71442714     0.08710
Cu104      Cu  0.99847510  0.47182039  0.68221928     0.44170
Cu105      Cu  0.00464165  0.51067125  0.74539510     0.41990
Cu106      Cu  0.00126969  0.43322771  0.74543195     0.43880
N107        N  0.99929019  0.42900487  0.68329002    -0.34910
N108        N  0.00096964  0.41427894  0.70650285    -0.29160
C109        C  0.00127604  0.38704320  0.69986623    -0.05260
C110        C  0.99955183  0.38480969  0.67106940     0.06950
C111        C  0.99816400  0.41176696  0.66133910     0.00750
H112        H  0.00189742  0.37021807  0.71483968     0.08400
H113        H  0.99631301  0.41837868  0.63981659     0.07480
N114        N  0.00144993  0.45821106  0.78080004    -0.36360
N115        N  0.00357097  0.48566484  0.78082605    -0.28540
C116        C  0.00397699  0.49467505  0.80739743    -0.03770
C117        C  0.00188398  0.47190018  0.82480926     0.04840
C118        C  0.00007979  0.44918092  0.80732851     0.02930
H119        H  0.00537470  0.51625550  0.81357372     0.08030
H120        H  0.99835228  0.42760912  0.81343721     0.06870
N121        N  0.00248780  0.67936410  0.55845600    -0.27520
N122        N  0.00066218  0.65641643  0.54345095    -0.35380
C123        C  0.99920205  0.63442020  0.56050826     0.00820
C124        C  0.00041255  0.64374541  0.58771587     0.06850
C125        C  0.00245991  0.67244105  0.58577186    -0.06250
H126        H  0.99696264  0.61313397  0.55358764     0.07510
H127        H  0.00281096  0.68716944  0.60282539     0.08710
Cu128      Cu  0.99912162  0.65549186  0.50052920     0.44170
Cu129      Cu  0.00260196  0.71834331  0.53956763     0.41990
Cu130      Cu  0.99627446  0.71811878  0.46159497     0.43880
N131        N  0.99806385  0.65630101  0.45759474    -0.34910
N132        N  0.99668504  0.67926925  0.44258107    -0.29160
C133        C  0.99708112  0.67238788  0.41526704    -0.05260
C134        C  0.99887276  0.64366728  0.41331502     0.06950
C135        C  0.99955958  0.63430722  0.44054606     0.00750
H136        H  0.99710604  0.68715822  0.39823972     0.08400
H137        H  0.00145280  0.61298697  0.44749626     0.07480
N138        N  0.99728288  0.75338180  0.48676263    -0.36360
N139        N  0.99976458  0.75353801  0.51432319    -0.28540
C140        C  0.99988438  0.78004998  0.52324896    -0.03770
C141        C  0.99701549  0.79740652  0.50036508     0.04840
C142        C  0.99575495  0.77975053  0.47759744     0.02930
H143        H  0.00177419  0.78624423  0.54488431     0.08030
H144        H  0.99445152  0.78558029  0.45582313     0.06870
N145        N  0.99755077  0.53011596  0.29388316    -0.27520
N146        N  0.99833836  0.51506327  0.31692580    -0.35380
C147        C  0.00059324  0.53191540  0.33906488     0.00820
C148        C  0.00154826  0.55900655  0.32966616     0.06850
C149        C  0.99914839  0.55723901  0.30086434    -0.06250
H150        H  0.00157265  0.52489864  0.36051092     0.07510
H151        H  0.99928140  0.57426758  0.28611996     0.08710
Cu152      Cu  0.99725270  0.47229910  0.31780619     0.44170
Cu153      Cu  0.99600616  0.51154560  0.25473133     0.41990
Cu154      Cu  0.99376137  0.43392912  0.25460198     0.43880
N155        N  0.99631984  0.42954001  0.31665367    -0.34910
N156        N  0.99440061  0.41484985  0.29344890    -0.29160
C157        C  0.99466111  0.38759900  0.30003514    -0.05260
C158        C  0.99698263  0.38534245  0.32879584     0.06950
C159        C  0.99812545  0.41229018  0.33854417     0.00750
H160        H  0.99417362  0.37080254  0.28503658     0.08400
H161        H  0.00042596  0.41889107  0.36002236     0.07480
N162        N  0.99620193  0.45896492  0.21937788    -0.36360
N163        N  0.99704949  0.48647242  0.21937164    -0.28540
C164        C  0.99895514  0.49544522  0.19286478    -0.03770
C165        C  0.99962869  0.47257309  0.17537300     0.04840
C166        C  0.99753037  0.44985212  0.19290219     0.02930
H167        H  0.99922677  0.51709709  0.18682065     0.08030
H168        H  0.99711432  0.42819403  0.18686109     0.06870
N169        N  0.00175162  0.26527231  0.55779822    -0.27520
N170        N  0.00001102  0.28833528  0.54293432    -0.35380
C171        C  0.99783942  0.31017092  0.56011946     0.00820
C172        C  0.99813433  0.30056159  0.58723763     0.06850
C173        C  0.00098798  0.27196489  0.58515662    -0.06250
H174        H  0.99598608  0.33154686  0.55332977     0.07510
H175        H  0.00164869  0.25715373  0.60213862     0.08710
Cu176      Cu  0.99986296  0.28968920  0.50000757     0.44170
Cu177      Cu  0.00308617  0.22643583  0.53866048     0.41990
Cu178      Cu  0.99555001  0.22725465  0.46093138     0.43880
N179        N  0.99940642  0.28895978  0.45706685    -0.34910
N180        N  0.99713394  0.26605884  0.44206300    -0.29160
C181        C  0.99766776  0.27288249  0.41475203    -0.05260
C182        C  0.00095813  0.30141604  0.41280765     0.06950
C183        C  0.00168920  0.31087062  0.43999120     0.00750
H184        H  0.99649373  0.25819145  0.39770089     0.08400
H185        H  0.00377488  0.33217908  0.44689141     0.07480
N186        N  0.99841527  0.19180527  0.48557494    -0.36360
N187        N  0.00150756  0.19142415  0.51306552    -0.28540
C188        C  0.00304280  0.16483728  0.52162217    -0.03770
C189        C  0.00115918  0.14766405  0.49849227     0.04840
C190        C  0.99789547  0.16552910  0.47607635     0.02930
H191        H  0.00541397  0.15846176  0.54316458     0.08030
H192        H  0.99477980  0.15994497  0.45442311     0.06870
N193        N  0.44159117  0.97028878  0.70591574    -0.27520
N194        N  0.45677541  0.97072381  0.68305892    -0.35380
C195        C  0.44015843  0.96941609  0.66062441     0.00820
C196        C  0.41294059  0.96728917  0.66946949     0.06850
C197        C  0.41449409  0.96846625  0.69845215    -0.06250
H198        H  0.44750998  0.97034413  0.63934624     0.07510
H199        H  0.39730756  0.96780089  0.71293927     0.08710
Cu200      Cu  0.49940234  0.97216564  0.68259613     0.44170
Cu201      Cu  0.46064788  0.97226520  0.74506494     0.41990
Cu202      Cu  0.53941407  0.97525842  0.74421092     0.43880
N203        N  0.54200366  0.97420521  0.68228453    -0.34910
N204        N  0.55762360  0.97590187  0.70492915    -0.29160
C205        C  0.58449162  0.97826596  0.69715533    -0.05260
C206        C  0.58544035  0.97845111  0.66815805     0.06950
C207        C  0.55813704  0.97520286  0.65964216     0.00750
H208        H  0.60190394  0.98012814  0.71143856     0.08400
H209        H  0.55039842  0.97348303  0.63847567     0.07480
N210        N  0.51438348  0.97516675  0.77957571    -0.36360
N211        N  0.48680228  0.97439115  0.77994393    -0.28540
C212        C  0.47828744  0.97485120  0.80664750    -0.03770
C213        C  0.50144125  0.97622386  0.82392546     0.04840
C214        C  0.52392660  0.97601736  0.80599145     0.02930
H215        H  0.45672524  0.97422598  0.81302945     0.08030
H216        H  0.54575195  0.97579246  0.81161752     0.06870
N217        N  0.70818346  0.96966457  0.55830460    -0.27520
N218        N  0.68605538  0.96293935  0.54333436    -0.35380
C219        C  0.66362967  0.96267023  0.55981823     0.00820
C220        C  0.67189683  0.96935179  0.58663425     0.06850
C221        C  0.70036891  0.97372611  0.58500719    -0.06250
H222        H  0.64255738  0.95923203  0.55252438     0.07510
H223        H  0.71402102  0.98089799  0.60151925     0.08710
Cu224      Cu  0.68605550  0.95887078  0.50054733     0.44170
Cu225      Cu  0.74664217  0.97541001  0.53970113     0.41990
Cu226      Cu  0.74657414  0.97613686  0.46171677     0.43880
N227        N  0.68569064  0.96423421  0.45790583    -0.34910
N228        N  0.70766999  0.97136625  0.44310702    -0.29160
C229        C  0.69951492  0.97616987  0.41653649    -0.05260
C230        C  0.67095908  0.97226166  0.41494219     0.06950
C231        C  0.66307104  0.96434500  0.44144249     0.00750
H232        H  0.71306155  0.98320449  0.40001531     0.08400
H233        H  0.64218615  0.95997139  0.44854877     0.07480
N234        N  0.78181095  0.97839693  0.48708662    -0.36360
N235        N  0.78174861  0.97819534  0.51476227    -0.28540
C236        C  0.80817881  0.97865307  0.52410423    -0.03770
C237        C  0.82557638  0.97925981  0.50133059     0.04840
C238        C  0.80833016  0.97898917  0.47821502     0.02930
H239        H  0.81426497  0.97791094  0.54586699     0.08030
H240        H  0.81458191  0.97857948  0.45655376     0.06870
N241        N  0.44210220  0.97043058  0.29333743    -0.27520
N242        N  0.45777981  0.97325076  0.31581718    -0.35380
C243        C  0.44171441  0.97355219  0.33850715     0.00820
C244        C  0.41422801  0.97054628  0.33035219     0.06850
C245        C  0.41523550  0.96851343  0.30133919    -0.06250
H246        H  0.44965433  0.97552282  0.35958834     0.07510
H247        H  0.39803699  0.96502617  0.28714599     0.08710
Cu248      Cu  0.50041588  0.97461275  0.31559351     0.44170
Cu249      Cu  0.46033250  0.96965378  0.25391210     0.41990
Cu250      Cu  0.53913756  0.97539193  0.25364316     0.43880
N251        N  0.54307936  0.97476058  0.31549594    -0.34910
N252        N  0.55830673  0.97552668  0.29269728    -0.29160
C253        C  0.58543045  0.97661314  0.30018420    -0.05260
C254        C  0.58703755  0.97629685  0.32920933     0.06950
C255        C  0.55969720  0.97511767  0.33796077     0.00750
H256        H  0.60246424  0.97838089  0.28563172     0.08400
H257        H  0.55230093  0.97483277  0.35925599     0.07480
N258        N  0.51320930  0.97416302  0.21864902    -0.36360
N259        N  0.48566043  0.97201393  0.21866237    -0.28540
C260        C  0.47647865  0.97187283  0.19206475    -0.03770
C261        C  0.49918371  0.97405051  0.17468180     0.04840
C262        C  0.52207379  0.97540186  0.19208755     0.02930
H263        H  0.45485029  0.97031723  0.18585869     0.08030
H264        H  0.54363698  0.97714095  0.18592094     0.06870
N265        N  0.29360986  0.97589045  0.44354474    -0.27520
N266        N  0.31494779  0.98459021  0.45865341    -0.35380
C267        C  0.33784760  0.98495885  0.44282231     0.00820
C268        C  0.33091907  0.97551108  0.41646534     0.06850
C269        C  0.30251953  0.97039803  0.41744392    -0.06250
H270        H  0.35828601  0.99083459  0.45031982     0.07510
H271        H  0.28959391  0.96223353  0.40081571     0.08710
Cu272      Cu  0.31370846  0.99106143  0.50113114     0.44170
Cu273      Cu  0.25434417  0.97092022  0.46098947     0.41990
Cu274      Cu  0.25219151  0.97739005  0.53873633     0.43880
N275        N  0.31319660  0.98676207  0.54391157    -0.34910
N276        N  0.29060597  0.98111654  0.55840250    -0.29160
C277        C  0.29796088  0.97640521  0.58522237    -0.05260
C278        C  0.32663043  0.97919941  0.58741467     0.06950
C279        C  0.33546766  0.98564461  0.56080545     0.00750
H280        H  0.28379664  0.96986721  0.60142577     0.08400
H281        H  0.35675661  0.98801053  0.55393221     0.07480
N282        N  0.21770691  0.97489355  0.51249641    -0.36360
N283        N  0.21833533  0.97181902  0.48501176    -0.28540
C284        C  0.19202766  0.97108017  0.47522819    -0.03770
C285        C  0.17412554  0.97435496  0.49748430     0.04840
C286        C  0.19106840  0.97648665  0.52075251     0.02930
H287        H  0.18637068  0.96898924  0.45344066     0.08030
H288        H  0.18452621  0.97890699  0.54219434     0.06870
O289        O  0.00118247  0.93092773  0.52347358    -0.73170
O290        O  0.99953016  0.01425722  0.52299502    -0.74150
O291        O  0.95858004  0.97214612  0.52444252    -0.62770
O292        O  0.04204074  0.97348286  0.52197124    -0.71180
O293        O  0.04044351  0.97131958  0.47566866    -0.70740
O294        O  0.95713885  0.97311188  0.47806185    -0.61990
O295        O  0.99942617  0.01402918  0.47671852    -0.74500
O296        O  0.99798373  0.93052424  0.47724807    -0.73280
Cu297      Cu  0.00039355  0.97266790  0.52484480     1.04560
Cu298      Cu  0.99870577  0.97222081  0.47529828     1.04330
C299        C  0.99974863  0.91755838  0.50047237     0.93020
C300        C  0.99918882  0.02735111  0.49981612     0.92160
C301        C  0.94481104  0.97291728  0.50158825     0.84310
C302        C  0.05434451  0.97236652  0.49842834     0.90580
O303        O  0.47794919  0.93212648  0.00025733    -0.73170
O304        O  0.47720656  0.01541464  0.99839361    -0.74150
O305        O  0.47775547  0.97288888  0.95770700    -0.62770
O306        O  0.47713442  0.97461923  0.04132831    -0.71180
O307        O  0.52339008  0.97379008  0.04202098    -0.70740
O308        O  0.52388896  0.97444418  0.95816050    -0.61990
O309        O  0.52340296  0.01572622  0.00047376    -0.74500
O310        O  0.52401664  0.93248825  0.99990372    -0.73280
Cu311      Cu  0.47590069  0.97376211  0.99943476     1.04560
Cu312      Cu  0.52529654  0.97412922  0.00016111     1.04330
C313        C  0.50113215  0.91905095  0.00001167     0.93020
C314        C  0.50021897  0.02866356  0.99908920     0.92160
C315        C  0.50086573  0.97343934  0.94469393     0.84310
C316        C  0.50013012  0.97419542  0.05478752     0.90580
O317        O  0.99960171  0.49354068  0.04170701    -0.73170
O318        O  0.99983608  0.49408635  0.95809285    -0.74150
O319        O  0.95770251  0.49378228  0.99955328    -0.62770
O320        O  0.04132581  0.49345636  0.00016235    -0.71180
O321        O  0.04101419  0.44746832  0.99973308    -0.70740
O322        O  0.95753798  0.44781812  0.99940187    -0.61990
O323        O  0.99889303  0.44793401  0.95774631    -0.74500
O324        O  0.99911030  0.44744552  0.04151067    -0.73280
Cu325      Cu  0.99960050  0.49532221  0.99990255     1.04560
Cu326      Cu  0.99916679  0.44606395  0.99960389     1.04330
C327        C  0.99919181  0.47044398  0.05482048     0.93020
C328        C  0.99928112  0.47112115  0.94479231     0.92160
C329        C  0.94431026  0.47081543  0.99940238     0.84310
C330        C  0.05446523  0.47034211  0.99983597     0.90580
C331        C  0.12919888  0.95289691  0.48364906    -0.09390
C332        C  0.14345315  0.97474256  0.49679503     0.06810
C333        C  0.12815184  0.99608387  0.50982347    -0.03150
C334        C  0.09909649  0.99480410  0.51033047    -0.07600
C335        C  0.08489661  0.97277010  0.49755068     0.05920
C336        C  0.10009891  0.95172625  0.48402653    -0.02630
Br337      Br  0.08213544  0.92005675  0.46760889    -0.02320
H338        H  0.14076234  0.93630495  0.47372843     0.09840
H339        H  0.08749600  0.01134262  0.52031169     0.07850
Br340      Br  0.14569947  0.02835729  0.52549377    -0.02750
C341        C  0.39582391  0.95658308  0.37632655    -0.09390
C342        C  0.39044829  0.96843284  0.35003054     0.06810
C343        C  0.36373974  0.97977888  0.34481240    -0.03150
C344        C  0.34396774  0.98061859  0.36633602    -0.07600
C345        C  0.35041710  0.97065315  0.39315821     0.05920
C346        C  0.37634880  0.95767398  0.39772896    -0.02630
Br347      Br  0.38648957  0.94029895  0.43246079    -0.02320
H348        H  0.41567634  0.94673114  0.38058174     0.09840
H349        H  0.32399232  0.99040869  0.36250079     0.07850
Br350      Br  0.35355212  0.99669964  0.30999764    -0.02750
C351        C  0.50145913  0.94920742  0.12949909    -0.09390
C352        C  0.49914004  0.97437527  0.14402348     0.06810
C353        C  0.49714410  0.99947822  0.12908351    -0.03150
C354        C  0.49740222  0.99912471  0.09987579    -0.07600
C355        C  0.49980296  0.97395759  0.08537720     0.05920
C356        C  0.50182387  0.94886160  0.10030005    -0.02630
Br357      Br  0.50481770  0.91376397  0.08154650    -0.02320
H358        H  0.50302454  0.92982296  0.14090380     0.09840
H359        H  0.49586921  0.01850787  0.08845537     0.07850
Br360      Br  0.49423932  0.03459159  0.14776732    -0.02750
C361        C  0.65685924  0.96371978  0.36550971    -0.09390
C362        C  0.65203729  0.97713726  0.39105473     0.06810
C363        C  0.62767210  0.99308330  0.39427655    -0.03150
C364        C  0.60782127  0.99374444  0.37300861    -0.07600
C365        C  0.61140391  0.97859516  0.34823086     0.05920
C366        C  0.63671324  0.96417385  0.34414002    -0.02630
Br367      Br  0.64393621  0.94239596  0.31145331    -0.02320
H368        H  0.67560561  0.95150110  0.36279114     0.09840
H369        H  0.58899429  0.00570470  0.37624876     0.07850
Br370      Br  0.62024961  0.01466342  0.42716019    -0.02750
C371        C  0.86916696  0.95183901  0.50197543    -0.09390
C372        C  0.85607306  0.97788633  0.50168042     0.06810
C373        C  0.87225942  0.00220001  0.50186218    -0.03150
C374        C  0.90129632  0.00021008  0.50211495    -0.07600
C375        C  0.91438075  0.97417085  0.50225750     0.05920
C376        C  0.89821482  0.94984943  0.50225861    -0.02630
Br377      Br  0.91500844  0.91367706  0.50243851    -0.02320
H378        H  0.85676301  0.93305638  0.50191059     0.09840
H379        H  0.91370336  0.01899800  0.50207241     0.07850
Br380      Br  0.85552838  0.03839752  0.50168956    -0.02750
C381        C  0.63424450  0.96535772  0.65604531    -0.09390
C382        C  0.60988567  0.98030275  0.64957624     0.06810
C383        C  0.60834499  0.99481081  0.62398945    -0.03150
C384        C  0.62946484  0.99179036  0.60441172    -0.07600
C385        C  0.65280424  0.97518505  0.60994694     0.05920
C386        C  0.65575841  0.96283130  0.63646926    -0.02630
Br387      Br  0.68735290  0.94030557  0.64598832    -0.02320
H388        H  0.63593502  0.95440761  0.67573697     0.09840
H389        H  0.62743780  0.00220880  0.58444452     0.07850
Br390      Br  0.57856278  0.01988894  0.61460998    -0.02750
C391        C  0.36449308  0.98207219  0.65715197    -0.09390
C392        C  0.38811315  0.96593301  0.65105465     0.06810
C393        C  0.38875537  0.95086693  0.62576467    -0.03150
C394        C  0.36769100  0.95456182  0.60600804    -0.07600
C395        C  0.34524133  0.97241710  0.61108656     0.05920
C396        C  0.34299992  0.98527431  0.63740986    -0.02630
Br397      Br  0.31254075  0.00939800  0.64635459    -0.02320
H398        H  0.36345759  0.99346460  0.67661488     0.09840
H399        H  0.36914150  0.94378258  0.58620622     0.07850
Br400      Br  0.41731167  0.92430228  0.61698101    -0.02750
C401        C  0.48228036  0.95925449  0.86884304    -0.09390
C402        C  0.50175983  0.97587227  0.85486349     0.06810
C403        C  0.52088032  0.99164971  0.87077710    -0.03150
C404        C  0.52052120  0.99008886  0.89993786    -0.07600
C405        C  0.50100971  0.97351272  0.91385423     0.05920
C406        C  0.48175022  0.95792746  0.89799773    -0.02630
Br407      Br  0.45533159  0.93315041  0.91473351    -0.02320
H408        H  0.46762529  0.94680169  0.85701310     0.09840
H409        H  0.53508073  0.00258430  0.91185583     0.07850
Br410      Br  0.54633136  0.01762439  0.85442242    -0.02750
C411        C  0.98656471  0.10289533  0.51957474    -0.09390
C412        C  0.00087520  0.11687758  0.49831862     0.06810
C413        C  0.01449636  0.10112460  0.47758688    -0.03150
C414        C  0.01326493  0.07208907  0.47829443    -0.07600
C415        C  0.99903743  0.05810916  0.49960575     0.05920
C416        C  0.98541928  0.07386198  0.52034471    -0.02630
Br417      Br  0.96341412  0.05726492  0.54925803    -0.02320
H418        H  0.97571853  0.11464362  0.53545859     0.09840
H419        H  0.02417174  0.06033406  0.46245268     0.07850
Br420      Br  0.03712524  0.11759898  0.44913401    -0.02750
C421        C  0.02290864  0.35898912  0.36454173    -0.09390
C422        C  0.00015743  0.36026966  0.34617106     0.06810
C423        C  0.97955298  0.33949259  0.34735648    -0.03150
C424        C  0.98109523  0.31892102  0.36806582    -0.07600
C425        C  0.00289578  0.31895552  0.38768672     0.05920
C426        C  0.02452126  0.33848371  0.38504505    -0.02630
Br427      Br  0.05666354  0.33820969  0.40903165    -0.02320
H428        H  0.03910251  0.37460105  0.36349661     0.09840
H429        H  0.96432536  0.30402776  0.36997703     0.07850
Br430      Br  0.94739329  0.34024189  0.32349305    -0.02750
C431        C  0.98290702  0.45337408  0.13030717    -0.09390
C432        C  0.00022871  0.47216416  0.14451976     0.06810
C433        C  0.01753841  0.48998861  0.12894550    -0.03150
C434        C  0.01665512  0.48922899  0.09976533    -0.07600
C435        C  0.99922070  0.47052754  0.08560417     0.05920
C436        C  0.98223869  0.45244087  0.10115292    -0.02630
Br437      Br  0.95631917  0.42741071  0.08388581    -0.02320
H438        H  0.96934021  0.43969461  0.14194084     0.09840
H439        H  0.03016641  0.50290211  0.08804691     0.07850
Br440      Br  0.04445884  0.51411746  0.14602967    -0.02750
C441        C  0.98442924  0.60529523  0.34548520    -0.09390
C442        C  0.00424692  0.58389707  0.34745538     0.06810
C443        C  0.02449430  0.58492976  0.36879687    -0.03150
C444        C  0.02319615  0.60565469  0.38906347    -0.07600
C445        C  0.00216362  0.62586549  0.38843614     0.05920
C446        C  0.98321613  0.62624634  0.36584803    -0.02630
Br447      Br  0.95348386  0.65278021  0.36353238    -0.02320
H448        H  0.96878490  0.60472689  0.32912991     0.09840
H449        H  0.03828229  0.60549871  0.40595728     0.07850
Br450      Br  0.05446963  0.55858640  0.37134662    -0.02750
C451        C  0.01596821  0.84221181  0.51786409    -0.09390
C452        C  0.99716391  0.82818391  0.50031417     0.06810
C453        C  0.97915134  0.84387634  0.48305316    -0.03150
C454        C  0.98075350  0.87289429  0.48309139    -0.07600
C455        C  0.99952587  0.88687733  0.50063715     0.05920
C456        C  0.01731474  0.87126353  0.51813277    -0.02630
Br457      Br  0.04512881  0.88833443  0.54135718    -0.02320
H458        H  0.03010931  0.83050065  0.53106511     0.09840
H459        H  0.96667613  0.88465639  0.46986286     0.07850
Br460      Br  0.95026431  0.82727768  0.46083939    -0.02750
C461        C  0.01569713  0.60417483  0.65462753    -0.09390
C462        C  0.99469746  0.58392335  0.65346671     0.06810
C463        C  0.97361171  0.58623119  0.63304938    -0.03150
C464        C  0.97512358  0.60698605  0.61281186    -0.07600
C465        C  0.99718452  0.62600689  0.61262456     0.05920
C466        C  0.01710800  0.62516703  0.63431996    -0.02630
Br467      Br  0.04825188  0.65002449  0.63531052    -0.02320
H468        H  0.03200821  0.60262629  0.67024951     0.09840
H469        H  0.95936303  0.60777456  0.59656557     0.07850
Br470      Br  0.94218279  0.56163784  0.63177749    -0.02750
C471        C  0.97452647  0.35768724  0.63530264    -0.09390
C472        C  0.99724074  0.35968366  0.65363894     0.06810
C473        C  0.01852469  0.33953402  0.65246056    -0.03150
C474        C  0.01757884  0.31880117  0.63187222    -0.07600
C475        C  0.99569511  0.31805458  0.61235988     0.05920
C476        C  0.97351552  0.33702939  0.61491607    -0.02630
Br477      Br  0.94146614  0.33584004  0.59084603    -0.02320
H478        H  0.95786533  0.37285153  0.63629159     0.09840
H479        H  0.03482471  0.30441187  0.62996343     0.07850
Br480      Br  0.05073687  0.34141904  0.67618587    -0.02750
C481        C  0.97842181  0.46047192  0.86935351    -0.09390
C482        C  0.00144329  0.47180668  0.85552145     0.06810
C483        C  0.02365448  0.48288135  0.87124212    -0.03150
C484        C  0.02244160  0.48276164  0.90038743    -0.07600
C485        C  0.99946229  0.47142029  0.91417997     0.05920
C486        C  0.97722467  0.46037027  0.89853465    -0.02630
Br487      Br  0.94423922  0.44651267  0.91615673    -0.02320
H488        H  0.96114408  0.45212414  0.85741198     0.09840
H489        H  0.03974104  0.49104072  0.91235328     0.07850
Br490      Br  0.05686327  0.49660785  0.85398699    -0.02750
C491        C  0.13058425  0.44969455  0.99026181    -0.09390
C492        C  0.14447715  0.47308124  0.00103323     0.06810
C493        C  0.12831850  0.49518407  0.01181435    -0.03150
C494        C  0.09924709  0.49377313  0.01083265    -0.07600
C495        C  0.08539582  0.47043228  0.99999524     0.05920
C496        C  0.10150175  0.44806886  0.98977856    -0.02630
Br497      Br  0.08560620  0.41507597  0.97374328    -0.02320
H498        H  0.14239231  0.43254008  0.98172219     0.09840
H499        H  0.08735275  0.51090726  0.01934116     0.07850
Br500      Br  0.14380262  0.52694719  0.03048356    -0.02750
C501        C  0.39502846  0.34331333  0.98251665    -0.09390
C502        C  0.38956879  0.31969650  0.99861547     0.06810
C503        C  0.36293583  0.31630013  0.01030678    -0.03150
C504        C  0.34318095  0.33772698  0.00785210    -0.07600
C505        C  0.34952591  0.36237968  0.99346871     0.05920
C506        C  0.37524504  0.36426531  0.97937480    -0.02630
Br507      Br  0.38463116  0.39411611  0.95447536    -0.02320
H508        H  0.41506954  0.34563566  0.97249920     0.09840
H509        H  0.32339421  0.33567072  0.01837962     0.07850
Br510      Br  0.35340285  0.28405473  0.03169655    -0.02750
C511        C  0.48545901  0.10308232  0.97813602    -0.09390
C512        C  0.50076115  0.11769978  0.99835651     0.06810
C513        C  0.51556374  0.10281822  0.01899992    -0.03150
C514        C  0.51532269  0.07377096  0.01874503    -0.07600
C515        C  0.50011086  0.05919441  0.99846104     0.05920
C516        C  0.48515303  0.07403404  0.97795101    -0.02630
Br517      Br  0.46568647  0.05564376  0.94814269    -0.02320
H518        H  0.47415658  0.11431573  0.96207378     0.09840
H519        H  0.52657515  0.06249742  0.03481958     0.07850
Br520      Br  0.53458493  0.12093870  0.04924366    -0.02750
C521        C  0.62447671  0.36917820  0.98460723    -0.09390
C522        C  0.65020857  0.36346307  0.99732169     0.06810
C523        C  0.65524548  0.33654611  0.00789431    -0.03150
C524        C  0.63379446  0.31672669  0.00756249    -0.07600
C525        C  0.60734065  0.32336872  0.99679898     0.05920
C526        C  0.60326599  0.34947601  0.98402295    -0.02630
Br527      Br  0.56955609  0.35947003  0.96470452    -0.02320
H528        H  0.62059485  0.38944196  0.97551258     0.09840
H529        H  0.63733516  0.29662302  0.01712094     0.07850
Br530      Br  0.68979959  0.32656238  0.02542145    -0.02750
C531        C  0.89976397  0.49534006  0.98947535    -0.09390
C532        C  0.91336841  0.47112450  0.99867716     0.06810
C533        C  0.89698487  0.44795083  0.00633995    -0.03150
C534        C  0.86794920  0.44969373  0.00514935    -0.07600
C535        C  0.85435407  0.47393142  0.99603950     0.05920
C536        C  0.87072752  0.49684991  0.98770957    -0.02630
Br537      Br  0.85555410  0.53002221  0.97132426    -0.02320
H538        H  0.91182158  0.51312600  0.98280857     0.09840
H539        H  0.85592090  0.43188487  0.01176228     0.07850
Br540      Br  0.91218761  0.41331298  0.01934199    -0.02750
C541        C  0.60785475  0.60174455  0.97950937    -0.09390
C542        C  0.61079350  0.62562588  0.99611146     0.06810
C543        C  0.63525073  0.62876546  0.01232781    -0.03150
C544        C  0.65497216  0.60721020  0.01320114    -0.07600
C545        C  0.65057210  0.58241663  0.99840934     0.05920
C546        C  0.62730596  0.58028365  0.98055318    -0.02630
Br547      Br  0.62091915  0.54872016  0.95681950    -0.02320
H548        H  0.58976356  0.59931054  0.96614514     0.09840
H549        H  0.67295596  0.60914439  0.02679415     0.07850
Br550      Br  0.64173907  0.66027442  0.03594492    -0.02750
C551        C  0.39296274  0.60244425  0.02136883    -0.09390
C552        C  0.38910000  0.62556184  0.00394979     0.06810
C553        C  0.36368407  0.62836135  0.98927460    -0.03150
C554        C  0.34387188  0.60695037  0.99044259    -0.07600
C555        C  0.34898761  0.58276020  0.00608615     0.05920
C556        C  0.37327218  0.58131074  0.02273519    -0.02630
Br557      Br  0.38085040  0.55151992  0.04843373    -0.02320
H558        H  0.41184470  0.60046007  0.03367994     0.09840
H559        H  0.32514350  0.60853833  0.97785558     0.07850
Br560      Br  0.35586438  0.65934868  0.96532844    -0.02750
C561        C  0.52232500  0.84312226  0.99140550    -0.09390
C562        C  0.49874875  0.82931395  0.00169434     0.06810
C563        C  0.47632831  0.84543127  0.01182809    -0.03150
C564        C  0.47762738  0.87442590  0.01069939    -0.07600
C565        C  0.50114512  0.88821333  0.00030571     0.05920
C566        C  0.52382976  0.87213277  0.99074492    -0.02630
Br567      Br  0.55716869  0.88789506  0.97543519    -0.02320
H568        H  0.53971931  0.83129249  0.98338246     0.09840
H569        H  0.46026021  0.88630908  0.01874426     0.07850
Br570      Br  0.44423976  0.82997122  0.02978657    -0.02750
loop_ 
_geom_bond_atom_site_label_1 
_geom_bond_atom_site_label_2 
_geom_bond_distance 
_geom_bond_site_symmetry_2 
_ccdc_geom_bond_type 
N1            N2   1.319       .  A
N1            C5   1.350       .  A
N1           Cu9   2.077       .  S
N2            C3   1.337       .  A
N2           Cu8   2.051       .  S
C3            C4   1.382       .  A
C3            H6   1.082       .  S
C4            C5   1.391       .  A
C4          C552   1.481   1_556  S
C5            H7   1.081   1_556  S
Cu8          N11   2.051       .  S
Cu9          N19   2.080       .  S
Cu10         N12   2.083       .  S
Cu10         N18   2.086       .  S
N11          N12   1.319   1_556  A
N11          C15   1.337       .  A
N12          C13   1.351   1_554  A
C13          C14   1.392       .  A
C13          H16   1.081       .  S
C14          C15   1.382       .  A
C14         C542   1.484       .  S
C15          H17   1.082       .  S
N18          N19   1.325   1_554  A
N18          C22   1.345       .  A
N19          C20   1.344       .  A
C20          C21   1.386   1_556  A
C20          H23   1.080       .  S
C21          C22   1.387       .  A
C21         C562   1.487       .  S
C22          H24   1.082       .  S
N25          N26   1.320       .  A
N25          C29   1.349       .  A
N25         Cu33   2.072       .  S
N26          C27   1.340       .  A
N26         Cu32   2.058       .  S
C27          C28   1.382       .  A
C27          H30   1.082       .  S
C28          C29   1.386       .  A
C28         C545   1.476   1_554  S
C29          H31   1.082   1_554  S
Cu32         N35   2.058       .  S
Cu33         N43   2.075   1_554  S
Cu34         N36   2.085   1_556  S
Cu34         N42   2.087       .  S
N35          N36   1.321       .  A
N35          C39   1.338       .  A
N36          C37   1.351   1_554  A
C37          C38   1.390   1_556  A
C37          H40   1.082       .  S
C38          C39   1.381       .  A
C38         C522   1.480   1_554  S
C39          H41   1.082       .  S
N42          N43   1.324       .  A
N42          C46   1.345       .  A
N43          C44   1.343   1_556  A
C44          C45   1.385   1_554  A
C44          H47   1.080       .  S
C45          C46   1.388       .  A
C45         C535   1.488       .  S
C46          H48   1.082       .  S
N49          N50   1.320       .  A
N49          C53   1.349   1_554  A
N49         Cu57   2.074   1_554  S
N50          C51   1.339       .  A
N50         Cu56   2.061       .  S
C51          C52   1.381       .  A
C51          H54   1.082       .  S
C52          C53   1.387   1_554  A
C52         C502   1.476   1_554  S
C53          H55   1.082       .  S
Cu56         N59   2.061       .  S
Cu57         N67   2.076       .  S
Cu58         N60   2.079   1_556  S
Cu58         N66   2.081       .  S
N59          N60   1.320       .  A
N59          C63   1.339       .  A
N60          C61   1.350   1_554  A
C61          C62   1.388   1_556  A
C61          H64   1.082       .  S
C62          C63   1.382       .  A
C62         C525   1.480   1_554  S
C63          H65   1.082       .  S
N66          N67   1.325       .  A
N66          C70   1.345       .  A
N67          C68   1.344       .  A
C68          C69   1.381       .  A
C68          H71   1.082       .  S
C69          C70   1.382       .  A
C69         C512   1.474       .  S
C70          H72   1.082       .  S
N73          N74   1.318       .  A
N73          C77   1.351   1_556  A
N73         Cu81   2.082       .  S
N74          C75   1.337   1_556  A
N74         Cu80   2.044       .  S
C75          C76   1.380       .  A
C75          H78   1.082       .  S
C76          C77   1.391       .  A
C76         C555   1.480       .  S
C77          H79   1.082       .  S
Cu80         N83   2.044       .  S
Cu81         N91   2.085       .  S
Cu82         N84   2.087       .  S
Cu82         N90   2.091   1_556  S
N83          N84   1.318       .  A
N83          C87   1.336       .  A
N84          C85   1.352       .  A
C85          C86   1.393       .  A
C85          H88   1.082       .  S
C86          C87   1.380       .  A
C86         C505   1.483       .  S
C87          H89   1.081       .  S
N90          N91   1.325   1_554  A
N90          C94   1.345       .  A
N91          C92   1.344       .  A
C92          C93   1.386   1_556  A
C92          H95   1.080       .  S
C93          C94   1.388       .  A
C93         C492   1.490       .  S
C94          H96   1.082       .  S
N97          N98   1.321   1_455  A
N97         C101   1.350       .  A
N97        Cu105   2.080       .  S
N98          C99   1.340       .  A
N98        Cu104   2.062       .  S
C99         C100   1.381       .  A
C99         H102   1.082       .  S
C100        C101   1.387   1_655  A
C100        C462   1.476       .  S
C101        H103   1.082       .  S
Cu104       N107   2.062       .  S
Cu105       N115   2.082       .  S
Cu106       N108   2.076       .  S
Cu106       N114   2.078       .  S
N107        N108   1.321   1_655  A
N107        C111   1.341       .  A
N108        C109   1.349       .  A
C109        C110   1.386   1_455  A
C109        H112   1.082       .  S
C110        C111   1.380       .  A
C110        C472   1.474       .  S
C111        H113   1.082       .  S
N114        N115   1.325       .  A
N114        C118   1.345       .  A
N115        C116   1.345       .  A
C116        C117   1.381       .  A
C116        H119   1.082       .  S
C117        C118   1.380       .  A
C117        C482   1.472       .  S
C118        H120   1.082   1_455  S
N121        N122   1.321       .  A
N121        C125   1.350       .  A
N121       Cu129   2.083       .  S
N122        C123   1.339   1_455  A
N122       Cu128   2.058   1_455  S
C123        C124   1.380   1_655  A
C123        H126   1.082       .  S
C124        C125   1.388       .  A
C124        C465   1.476   1_455  S
C125        H127   1.082       .  S
Cu128       N131   2.058       .  S
Cu129       N139   2.085   1_455  S
Cu130       N132   2.080       .  S
Cu130       N138   2.083       .  S
N131        N132   1.320       .  A
N131        C135   1.339       .  A
N132        C133   1.350       .  A
C133        C134   1.388       .  A
C133        H136   1.082       .  S
C134        C135   1.380       .  A
C134        C445   1.477   1_655  S
C135        H137   1.082   1_655  S
N138        N139   1.325       .  A
N138        C142   1.345       .  A
N139        C140   1.346       .  A
C140        C141   1.384       .  A
C140        H143   1.082   1_655  S
C141        C142   1.384       .  A
C141        C452   1.481       .  S
C142        H144   1.082       .  S
N145        N146   1.321       .  A
N145        C149   1.350       .  A
N145       Cu153   2.079       .  S
N146        C147   1.339   1_655  A
N146       Cu152   2.059       .  S
C147        C148   1.380       .  A
C147        H150   1.082       .  S
C148        C149   1.387   1_455  A
C148        C442   1.476       .  S
C149        H151   1.082       .  S
Cu152       N155   2.059       .  S
Cu153       N163   2.081       .  S
Cu154       N156   2.075       .  S
Cu154       N162   2.077       .  S
N155        N156   1.320       .  A
N155        C159   1.340       .  A
N156        C157   1.349       .  A
C157        C158   1.386       .  A
C157        H160   1.082       .  S
C158        C159   1.380       .  A
C158        C422   1.473   1_655  S
C159        H161   1.082   1_655  S
N162        N163   1.325       .  A
N162        C166   1.344       .  A
N163        C164   1.345       .  A
C164        C165   1.384       .  A
C164        H167   1.082       .  S
C165        C166   1.383       .  A
C165        C432   1.479   1_655  S
C166        H168   1.082       .  S
N169        N170   1.321       .  A
N169        C173   1.350       .  A
N169       Cu177   2.083       .  S
N170        C171   1.339   1_455  A
N170       Cu176   2.058   1_455  S
C171        C172   1.379       .  A
C171        H174   1.082       .  S
C172        C173   1.387   1_655  A
C172        C475   1.474       .  S
C173        H175   1.082       .  S
Cu176       N179   2.058       .  S
Cu177       N187   2.085       .  S
Cu178       N180   2.077       .  S
Cu178       N186   2.079       .  S
N179        N180   1.320       .  A
N179        C183   1.340   1_655  A
N180        C181   1.349       .  A
C181        C182   1.386   1_655  A
C181        H184   1.082       .  S
C182        C183   1.380       .  A
C182        C425   1.473       .  S
C183        H185   1.082       .  S
N186        N187   1.325   1_655  A
N186        C190   1.344       .  A
N187        C188   1.345       .  A
C188        C189   1.385       .  A
C188        H191   1.082       .  S
C189        C190   1.384   1_455  A
C189        C412   1.482       .  S
C190        H192   1.081       .  S
N193        N194   1.319       .  A
N193        C197   1.351       .  A
N193       Cu201   2.085       .  S
N194        C195   1.337       .  A
N194       Cu200   2.050       .  S
C195        C196   1.381       .  A
C195        H198   1.081       .  S
C196        C197   1.391       .  A
C196        C392   1.482       .  S
C197        H199   1.082       .  S
Cu200       N203   2.049       .  S
Cu201       N211   2.088       .  S
Cu202       N204   2.080       .  S
Cu202       N210   2.083       .  S
N203        N204   1.319       .  A
N203        C207   1.337       .  A
N204        C205   1.350       .  A
C205        C206   1.390       .  A
C205        H208   1.082       .  S
C206        C207   1.381       .  A
C206        C382   1.480       .  S
C207        H209   1.082       .  S
N210        N211   1.326       .  A
N210        C214   1.344       .  A
N211        C212   1.345       .  A
C212        C213   1.385       .  A
C212        H215   1.082       .  S
C213        C214   1.384       .  A
C213        C402   1.482       .  S
C214        H216   1.081       .  S
N217        N218   1.320       .  A
N217        C221   1.349       .  A
N217       Cu225   2.074       .  S
N218        C219   1.339       .  A
N218       Cu224   2.059       .  S
C219        C220   1.381       .  A
C219        H222   1.082       .  S
C220        C221   1.387       .  A
C220        C385   1.476       .  S
C221        H223   1.082       .  S
Cu224       N227   2.059       .  S
Cu225       N235   2.076       .  S
Cu226       N228   2.080       .  S
Cu226       N234   2.082       .  S
N227        N228   1.321       .  A
N227        C231   1.340       .  A
N228        C229   1.350       .  A
C229        C230   1.387       .  A
C229        H232   1.082       .  S
C230        C231   1.381       .  A
C230        C362   1.476       .  S
C231        H233   1.082       .  S
N234        N235   1.326       .  A
N234        C238   1.346       .  A
N235        C236   1.344       .  A
C236        C237   1.378       .  A
C236        H239   1.082       .  S
C237        C238   1.380       .  A
C237        C372   1.467       .  S
C238        H240   1.082       .  S
N241        N242   1.318       .  A
N241        C245   1.352       .  A
N241       Cu249   2.086       .  S
N242        C243   1.336       .  A
N242       Cu248   2.050       .  S
C243        C244   1.383       .  A
C243        H246   1.082       .  S
C244        C245   1.394       .  A
C244        C342   1.489       .  S
C245        H247   1.081       .  S
Cu248       N251   2.050       .  S
Cu249       N259   2.090       .  S
Cu250       N252   2.081       .  S
Cu250       N258   2.084       .  S
N251        N252   1.318       .  A
N251        C255   1.337       .  A
N252        C253   1.351       .  A
C253        C254   1.392       .  A
C253        H256   1.081       .  S
C254        C255   1.382       .  A
C254        C365   1.484       .  S
C255        H257   1.082       .  S
N258        N259   1.328       .  A
N258        C262   1.345       .  A
N259        C260   1.346       .  A
C260        C261   1.380       .  A
C260        H263   1.082       .  S
C261        C262   1.378       .  A
C261        C352   1.469       .  S
C262        H264   1.082       .  S
N265        N266   1.321       .  A
N265        C269   1.350       .  A
N265       Cu273   2.081       .  S
N266        C267   1.340       .  A
N266       Cu272   2.060       .  S
C267        C268   1.381       .  A
C267        H270   1.082       .  S
C268        C269   1.388       .  A
C268        C345   1.480       .  S
C269        H271   1.082       .  S
Cu272       N275   2.060       .  S
Cu273       N283   2.083       .  S
Cu274       N276   2.076       .  S
Cu274       N282   2.078       .  S
N275        N276   1.320       .  A
N275        C279   1.339       .  A
N276        C277   1.350       .  A
C277        C278   1.388       .  A
C277        H280   1.082       .  S
C278        C279   1.381       .  A
C278        C395   1.477       .  S
C279        H281   1.082       .  S
N282        N283   1.326       .  A
N282        C286   1.344       .  A
N283        C284   1.346       .  A
C284        C285   1.382       .  A
C284        H287   1.082       .  S
C285        C286   1.381       .  A
C285        C332   1.474       .  S
C286        H288   1.082       .  S
O289       Cu297   2.010       .  S
O289        C299   1.278   1_455  A
O290       Cu297   2.004   1_645  S
O290        C300   1.277       .  A
O291       Cu297   2.009   1_655  S
O291        C301   1.277       .  A
O292       Cu297   2.007       .  S
O292        C302   1.277       .  A
O293       Cu298   2.006   1_455  S
O293        C302   1.277       .  A
O294       Cu298   2.003       .  S
O294        C301   1.276       .  A
O295       Cu298   2.014   1_545  S
O295        C300   1.279       .  A
O296       Cu298   2.009       .  S
O296        C299   1.278       .  A
Cu297      Cu298   2.375   1_455  S
C299        C455   1.477       .  S
C300        C415   1.480       .  S
C301        C375   1.464       .  S
C302        C335   1.469       .  S
O303       Cu311   2.007   1_554  S
O303        C313   1.279       .  A
O304       Cu311   2.007   1_545  S
O304        C314   1.277       .  A
O305       Cu311   2.002       .  S
O305        C315   1.276       .  A
O306       Cu311   2.008   1_554  S
O306        C316   1.277       .  A
O307       Cu312   2.008       .  S
O307        C316   1.277       .  A
O308       Cu312   2.013   1_556  S
O308        C315   1.279       .  A
O309       Cu312   2.004   1_545  S
O309        C314   1.277   1_554  A
O310       Cu312   2.005   1_556  S
O310        C313   1.276   1_556  A
Cu311      Cu312   2.373   1_556  S
C313        C565   1.484       .  S
C314        C515   1.470       .  S
C315        C405   1.478       .  S
C316        C355   1.466       .  S
O317       Cu325   2.005   1_554  S
O317        C327   1.277       .  A
O318       Cu325   2.004       .  S
O318        C328   1.276       .  A
O319       Cu325   2.014       .  S
O319        C329   1.280       .  A
O320       Cu325   2.007   1_454  S
O320        C330   1.279   1_554  A
O321       Cu326   2.012   1_455  S
O321        C330   1.277       .  A
O322       Cu326   2.002       .  S
O322        C329   1.276       .  A
O323       Cu326   2.007       .  S
O323        C328   1.277       .  A
O324       Cu326   2.009   1_554  S
O324        C327   1.278       .  A
Cu325      Cu326   2.371       .  S
C327        C435   1.475       .  S
C328        C485   1.467       .  S
C329        C532   1.487       .  S
C330        C495   1.486       .  S
C331        C332   1.403       .  A
C331        C336   1.400       .  A
C331        H338   1.083       .  S
C332        C333   1.410       .  A
C333        C334   1.398       .  A
C333       Br340   1.920   1_565  S
C334        C335   1.401       .  A
C334        H339   1.084   1_565  S
C335        C336   1.408       .  A
C336       Br337   1.919       .  S
C341        C342   1.405       .  A
C341        C346   1.393       .  A
C341        H348   1.083       .  S
C342        C343   1.415       .  A
C343        C344   1.406       .  A
C343       Br350   1.917       .  S
C344        C345   1.405       .  A
C344        H349   1.083       .  S
C345        C346   1.409       .  A
C346       Br347   1.922       .  S
C351        C352   1.402       .  A
C351        C356   1.399       .  A
C351        H358   1.083       .  S
C352        C353   1.407       .  A
C353        C354   1.400       .  A
C353       Br360   1.918   1_565  S
C354        C355   1.401       .  A
C354        H359   1.084   1_565  S
C355        C356   1.407       .  A
C356       Br357   1.919       .  S
C361        C362   1.404       .  A
C361        C366   1.405       .  A
C361        H368   1.083       .  S
C362        C363   1.408       .  A
C363        C364   1.392       .  A
C363       Br370   1.922   1_565  S
C364        C365   1.404       .  A
C364        H369   1.083   1_565  S
C365        C366   1.414       .  A
C366       Br367   1.917       .  S
C371        C372   1.402       .  A
C371        C376   1.399       .  A
C371        H378   1.083       .  S
C372        C373   1.406   1_565  A
C373        C374   1.398       .  A
C373       Br380   1.918       .  S
C374        C375   1.401   1_545  A
C374        H379   1.084       .  S
C375        C376   1.406       .  A
C376       Br377   1.918       .  S
C381        C382   1.406       .  A
C381        C386   1.404       .  A
C381        H388   1.083       .  S
C382        C383   1.412       .  A
C383        C384   1.393       .  A
C383       Br390   1.922   1_565  S
C384        C385   1.400       .  A
C384        H389   1.084   1_565  S
C385        C386   1.409       .  A
C386       Br387   1.917       .  S
C391        C392   1.406       .  A
C391        C396   1.405       .  A
C391        H398   1.083       .  S
C392        C393   1.413       .  A
C393        C394   1.393       .  A
C393       Br400   1.922       .  S
C394        C395   1.400       .  A
C394        H399   1.084       .  S
C395        C396   1.409       .  A
C396       Br397   1.917   1_565  S
C401        C402   1.404       .  A
C401        C406   1.399       .  A
C401        H408   1.083       .  S
C402        C403   1.413       .  A
C403        C404   1.399       .  A
C403       Br410   1.920   1_565  S
C404        C405   1.403       .  A
C404        H409   1.084   1_565  S
C405        C406   1.411       .  A
C406       Br407   1.921       .  S
C411        C412   1.404   1_655  A
C411        C416   1.399       .  A
C411        H418   1.083       .  S
C412        C413   1.412       .  A
C413        C414   1.399       .  A
C413       Br420   1.920       .  S
C414        C415   1.404   1_455  A
C414        H419   1.084       .  S
C415        C416   1.413       .  A
C416       Br417   1.921       .  S
C421        C422   1.401       .  A
C421        C426   1.394       .  A
C421        H428   1.084       .  S
C422        C423   1.409   1_455  A
C423        C424   1.403       .  A
C423       Br430   1.918       .  S
C424        C425   1.404   1_655  A
C424        H429   1.083       .  S
C425        C426   1.408       .  A
C426       Br427   1.920       .  S
C431        C432   1.404   1_655  A
C431        C436   1.398       .  A
C431        H438   1.083       .  S
C432        C433   1.412       .  A
C433        C434   1.399       .  A
C433       Br440   1.920       .  S
C434        C435   1.403   1_455  A
C434        H439   1.084       .  S
C435        C436   1.409       .  A
C436       Br437   1.918       .  S
C441        C442   1.404   1_655  A
C441        C446   1.405       .  A
C441        H448   1.083       .  S
C442        C443   1.409       .  A
C443        C444   1.394       .  A
C443       Br450   1.921       .  S
C444        C445   1.402       .  A
C444        H449   1.084       .  S
C445        C446   1.411   1_455  A
C446       Br447   1.918       .  S
C451        C452   1.405   1_455  A
C451        C456   1.400       .  A
C451        H458   1.083       .  S
C452        C453   1.412       .  A
C453        C454   1.399       .  A
C453       Br460   1.920       .  S
C454        C455   1.403       .  A
C454        H459   1.084       .  S
C455        C456   1.410   1_655  A
C456       Br457   1.920       .  S
C461        C462   1.405   1_455  A
C461        C466   1.404       .  A
C461        H468   1.083       .  S
C462        C463   1.409       .  A
C463        C464   1.394       .  A
C463       Br470   1.921       .  S
C464        C465   1.402       .  A
C464        H469   1.084       .  S
C465        C466   1.410   1_655  A
C466       Br467   1.918       .  S
C471        C472   1.401       .  A
C471        C476   1.395       .  A
C471        H478   1.084       .  S
C472        C473   1.410   1_655  A
C473        C474   1.404       .  A
C473       Br480   1.918       .  S
C474        C475   1.404   1_455  A
C474        H479   1.083       .  S
C475        C476   1.408       .  A
C476       Br477   1.920       .  S
C481        C482   1.403   1_655  A
C481        C486   1.399       .  A
C481        H488   1.084       .  S
C482        C483   1.408       .  A
C483        C484   1.398       .  A
C483       Br490   1.919       .  S
C484        C485   1.401   1_455  A
C484        H489   1.084       .  S
C485        C486   1.407       .  A
C486       Br487   1.920       .  S
C491        C492   1.406   1_556  A
C491        C496   1.400       .  A
C491        H498   1.083       .  S
C492        C493   1.415       .  A
C493        C494   1.399       .  A
C493       Br500   1.920       .  S
C494        C495   1.405   1_554  A
C494        H499   1.084       .  S
C495        C496   1.414       .  A
C496       Br497   1.922       .  S
C501        C502   1.399       .  A
C501        C506   1.392       .  A
C501        H508   1.084       .  S
C502        C503   1.409   1_556  A
C503        C504   1.405       .  A
C503       Br510   1.917       .  S
C504        C505   1.407   1_554  A
C504        H509   1.083       .  S
C505        C506   1.414       .  A
C506       Br507   1.923       .  S
C511        C512   1.403       .  A
C511        C516   1.398       .  A
C511        H518   1.084       .  S
C512        C513   1.410   1_556  A
C513        C514   1.398       .  A
C513       Br520   1.919       .  S
C514        C515   1.402   1_554  A
C514        H519   1.084       .  S
C515        C516   1.408       .  A
C516       Br517   1.920       .  S
C521        C522   1.402       .  A
C521        C526   1.393       .  A
C521        H528   1.084       .  S
C522        C523   1.411   1_556  A
C523        C524   1.405       .  A
C523       Br530   1.917       .  S
C524        C525   1.406   1_554  A
C524        H529   1.083       .  S
C525        C526   1.411       .  A
C526       Br527   1.922       .  S
C531        C532   1.405       .  A
C531        C536   1.399       .  A
C531        H538   1.083       .  S
C532        C533   1.416   1_556  A
C533        C534   1.398       .  A
C533       Br540   1.922       .  S
C534        C535   1.405   1_554  A
C534        H539   1.083       .  S
C535        C536   1.414       .  A
C536       Br537   1.920       .  S
C541        C542   1.405       .  A
C541        C546   1.393       .  A
C541        H548   1.083       .  S
C542        C543   1.414   1_556  A
C543        C544   1.405       .  A
C543       Br550   1.917       .  S
C544        C545   1.404   1_554  A
C544        H549   1.083       .  S
C545        C546   1.408       .  A
C546       Br547   1.922       .  S
C551        C552   1.402       .  A
C551        C556   1.392       .  A
C551        H558   1.084       .  S
C552        C553   1.412   1_554  A
C553        C554   1.405       .  A
C553       Br560   1.917       .  S
C554        C555   1.405   1_556  A
C554        H559   1.083       .  S
C555        C556   1.412       .  A
C556       Br557   1.923       .  S
C561        C562   1.405   1_556  A
C561        C566   1.399       .  A
C561        H568   1.083       .  S
C562        C563   1.415       .  A
C563        C564   1.398       .  A
C563       Br570   1.920       .  S
C564        C565   1.405       .  A
C564        H569   1.083       .  S
C565        C566   1.414   1_554  A
C566       Br567   1.922       .  S
