geometry optimzed in LAMMPS
_audit_creation_date              2020-11-30 
_audit_creation_method            'lammps2cif' 
_symmetry_space_group_name_H-M    'P1' 
_symmetry_Int_Tables_number       1 
_symmetry_cell_setting            triclinic 
loop_ 
_symmetry_equiv_pos_as_xyz 
  x,y,z 
_cell_length_a                    24.377336612383385 
_cell_length_b                    22.913277701342636 
_cell_length_c                    21.993454995933025 
_cell_angle_alpha                 91.24644005394124 
_cell_angle_beta                  88.45024077905522 
_cell_angle_gamma                 90.30050867198189 
loop_ 
_atom_site_label 
_atom_site_type_symbol 
_atom_site_fract_x 
_atom_site_fract_y 
_atom_site_fract_z 
_atom_site_charge 
O1          O  0.31623643  0.18728715  0.45012612    -0.72760
O2          O  0.18351046  0.30280417  0.44774165    -0.73740
O3          O  0.30442526  0.31690748  0.44963118    -0.62360
O4          O  0.19423742  0.17620909  0.45420058    -0.70770
O5          O  0.18791111  0.18623876  0.05292684    -0.70320
O6          O  0.30297562  0.32280946  0.04888885    -0.61570
O7          O  0.18115333  0.30767759  0.04694911    -0.74080
O8          O  0.31595707  0.20206161  0.04845768    -0.72860
Cu9        Cu  0.24977211  0.24574413  0.44717661     1.04560
Cu10       Cu  0.24700633  0.25437838  0.05228648     1.04330
C11         C  0.34033452  0.17971792  0.00060973     0.93440
C12         C  0.15826509  0.32030113  0.49697404     0.92580
C13         C  0.31921656  0.34481912  0.99839344     0.84730
C14         C  0.17456205  0.15667950  0.50515676     0.91000
C15         C  0.15371681  0.08954774  0.50944418    -0.02300
C16         C  0.24730494  0.99519933  0.28293643     0.00750
C17         C  0.24465851  0.00005413  0.22240457     0.00750
C18         C  0.33935455  0.41193131  0.49580651    -0.02300
C19         C  0.09451055  0.33598768  0.49714150    -0.02300
C20         C  0.49757417  0.24562496  0.21568167     0.00750
C21         C  0.49946277  0.24972014  0.27780832     0.00750
C22         C  0.40443113  0.16385381  0.50299361    -0.02300
O23         O  0.42630904  0.44048381  0.05218265    -0.72760
O24         O  0.06282737  0.05731682  0.06221097    -0.73740
O25         O  0.44514981  0.07428538  0.05700931    -0.62360
O26         O  0.04757959  0.42387738  0.05620385    -0.70770
O27         O  0.04724878  0.42595443  0.45925972    -0.70320
O28         O  0.44214053  0.06660357  0.45986801    -0.61570
O29         O  0.06604258  0.04700696  0.46516155    -0.74080
O30         O  0.43294543  0.43599725  0.45376093    -0.72860
Cu31       Cu  0.49502942  0.99843946  0.06057660     1.04560
Cu32       Cu  0.49711740  0.99454242  0.45705062     1.04490
C33         C  0.40421218  0.42536116  0.50119591     0.93440
C34         C  0.08896776  0.06866682  0.51225911     0.92580
C35         C  0.42819062  0.09648235  0.50739069     0.84730
C36         C  0.06521651  0.40058835  0.50527539     0.91000
C37         C  0.45608598  0.22565594  0.31914437    -0.05280
C38         C  0.46813813  0.17055372  0.33989457    -0.32710
C39         C  0.46770363  0.16157509  0.40274401     0.36540
C40         C  0.43109394  0.19213320  0.44272365    -0.05640
C41         C  0.41121461  0.24431280  0.41770943    -0.32610
C42         C  0.42588857  0.26286710  0.35873847     0.36450
H43         H  0.99393630  0.14259974  0.31092222     0.16820
O44         O  0.51233654  0.13476456  0.42546617    -0.60100
H45         H  0.38536595  0.27167711  0.44454301     0.16830
O46         O  0.41312634  0.31822700  0.34158079    -0.60200
H47         H  0.37624154  0.31479022  0.32386540     0.43830
H48         H  0.01979765  0.10132266  0.39713356     0.43780
C49         C  0.44537884  0.23856278  0.18218180    -0.05280
C50         C  0.43876415  0.27723256  0.13394761    -0.32710
C51         C  0.43066850  0.25516510  0.07475722     0.36540
C52         C  0.41900317  0.19469379  0.06507140    -0.05640
C53         C  0.40401070  0.16466745  0.11913452    -0.32610
C54         C  0.42124495  0.18348640  0.17615152     0.36450
H55         H  0.45248713  0.32211444  0.13907201     0.16820
O56         O  0.43477708  0.29389219  0.02865813    -0.60100
H57         H  0.38156491  0.12419932  0.11688173     0.16830
O58         O  0.42019896  0.14502481  0.22285920    -0.60200
H59         H  0.38305881  0.14892501  0.24200045     0.43830
H60         H  0.47269111  0.29062285  0.01192276     0.43780
C61         C  0.07774002  0.31173341  0.43136066    -0.05280
C62         C  0.08348645  0.25228051  0.41298384    -0.32710
C63         C  0.07379606  0.23363469  0.35256720     0.36540
C64         C  0.04753245  0.27108391  0.31277758    -0.05640
C65         C  0.05067800  0.33028647  0.32663307    -0.32610
C66         C  0.07630523  0.34921331  0.37964162     0.36450
H67         H  0.10115470  0.22127980  0.44243319     0.16820
O68         O  0.08770850  0.17840800  0.33342219    -0.60100
H69         H  0.03380759  0.36212813  0.29681656     0.16830
O70         O  0.10674836  0.40000748  0.37740814    -0.60200
H71         H  0.08647205  0.42856764  0.35325884     0.43830
H72         H  0.12526038  0.18217673  0.31542303     0.43780
C73         C  0.07471192  0.30384391  0.05695895    -0.05280
C74         C  0.05989699  0.24434377  0.06156347    -0.32710
C75         C  0.04984171  0.21908072  0.11934556     0.36540
C76         C  0.04549924  0.25487548  0.17254913    -0.05640
C77         C  0.06770742  0.31017354  0.16927946    -0.32610
C78         C  0.08638666  0.33173280  0.11391534     0.36450
H79         H  0.05428943  0.21686790  0.02220185     0.16820
O80         O  0.53883075  0.16056912  0.12390471    -0.60100
H81         H  0.07024750  0.33815157  0.20883346     0.16830
O82         O  0.11992293  0.37920035  0.11609773    -0.60200
H83         H  0.15201768  0.36472715  0.13719689     0.43830
H84         H  0.51503852  0.14990340  0.08975567     0.43780
C85         C  0.31678738  0.43366766  0.43193842    -0.05280
C86         C  0.26447622  0.41417032  0.41257239    -0.32710
C87         C  0.24946779  0.41494623  0.35173605     0.36540
C88         C  0.27921537  0.44824353  0.31057191    -0.05640
C89         C  0.33257653  0.46241430  0.32441297    -0.32610
C90         C  0.34861550  0.46228938  0.38531391     0.36450
H91         H  0.23655510  0.39278739  0.44290080     0.16820
O92         O  0.20208357  0.38869237  0.33376613    -0.60100
H93         H  0.35518725  0.99015762  0.29315118     0.16830
O94         O  0.38303428  0.50671179  0.40025158    -0.60200
H95         H  0.41521073  0.00411547  0.37151661     0.43830
H96         H  0.21267472  0.34829863  0.32159156     0.43780
C97         C  0.31087242  0.44477122  0.05289487    -0.05280
C98         C  0.33656986  0.48945828  0.08743145    -0.32710
C99         C  0.32431487  0.49912001  0.14977742     0.36540
C100        C  0.28140345  0.46807177  0.17813140    -0.05640
C101        C  0.25564405  0.42511873  0.14416030    -0.32610
C102        C  0.26264705  0.42366818  0.08097746     0.36450
H103        H  0.36586367  0.51740433  0.06572496     0.16820
O104        O  0.35069432  0.54264450  0.18122766    -0.60100
H105        H  0.22199910  0.40302404  0.16572478     0.16830
O106        O  0.21985475  0.40705460  0.04670068    -0.60200
H107        H  0.20695174  0.44293685  0.02740498     0.43830
H108        H  0.38747456  0.52675789  0.18935473     0.43780
C109        C  0.17844829  0.06464918  0.44704790    -0.05280
C110        C  0.14791559  0.06975846  0.39297551    -0.32710
C111        C  0.16687281  0.04786315  0.33676192     0.36540
C112        C  0.22302228  0.03823315  0.32811647    -0.05640
C113        C  0.25662863  0.05687827  0.37524923    -0.32610
C114        C  0.23576063  0.06029413  0.43479642     0.36450
H115        H  0.10993391  0.09262845  0.39241395     0.16820
O116        O  0.13010159  0.03702846  0.29204574    -0.60100
H117        H  0.30023275  0.06116199  0.36742391     0.16830
O118        O  0.27289531  0.06174126  0.47929185    -0.60200
H119        H  0.26638488  0.02484236  0.50026356     0.43830
H120        H  0.12091677  0.07578823  0.27598853     0.43780
C121        C  0.20437269  0.03689039  0.19258751    -0.05280
C122        C  0.22703680  0.08498288  0.16530522    -0.32710
C123        C  0.22139821  0.09130301  0.10307755     0.36540
C124        C  0.17966587  0.06281201  0.06924564    -0.05640
C125        C  0.15411232  0.01625630  0.10080622    -0.32610
C126        C  0.16202906  0.00737706  0.16299157     0.36450
H127        H  0.26072843  0.10750335  0.18715424     0.16820
O128        O  0.26269891  0.11954244  0.07440339    -0.60100
H129        H  0.12743583  0.98633293  0.07748300     0.16830
O130        O  0.13411547  0.96389776  0.19258307    -0.60200
H131        H  0.09511252  0.97610698  0.19399171     0.43830
H132        H  0.29644988  0.09720135  0.08175853     0.43780
O133        O  0.31623658  0.18728904  0.95012658    -0.72760
O134        O  0.18351047  0.30280579  0.94774132    -0.73740
O135        O  0.30442552  0.31690940  0.94963148    -0.62360
O136        O  0.19423781  0.17621091  0.95420076    -0.70770
O137        O  0.18791114  0.18623650  0.55292673    -0.70320
O138        O  0.30297554  0.32280730  0.54888857    -0.61570
O139        O  0.18115312  0.30767510  0.54694947    -0.74080
O140        O  0.31595716  0.20205966  0.54845729    -0.72860
Cu141      Cu  0.24977233  0.24574598  0.94717675     1.04560
Cu142      Cu  0.24700631  0.25437615  0.55228638     1.04330
C143        C  0.34033455  0.17971612  0.50060919     0.93440
C144        C  0.15826510  0.32030297  0.99697361     0.92580
C145        C  0.31921637  0.34481708  0.49839316     0.84730
C146        C  0.17456245  0.15668141  0.00515698     0.91000
C147        C  0.15371748  0.08954961  0.00944455    -0.02300
C148        C  0.24730672  0.99520084  0.78293652     0.00750
C149        C  0.24466004  0.00005462  0.72240455     0.00750
C150        C  0.33935470  0.41193339  0.99580674    -0.02300
C151        C  0.09451047  0.33598912  0.99714109    -0.02300
C152        C  0.49757406  0.24562356  0.71568167     0.00750
C153        C  0.49946206  0.24971964  0.77780830     0.00750
C154        C  0.40443111  0.16385559  0.00299429    -0.02300
O155        O  0.42630906  0.44048154  0.55218218    -0.72760
O156        O  0.06282664  0.05731537  0.56221044    -0.73740
O157        O  0.44514943  0.07428340  0.55700837    -0.62360
O158        O  0.04757973  0.42387608  0.55620405    -0.70770
O159        O  0.04724965  0.42595655  0.95925948    -0.70320
O160        O  0.44214077  0.06660535  0.95986901    -0.61570
O161        O  0.06604296  0.04700931  0.96516205    -0.74080
O162        O  0.43294580  0.43599938  0.95376140    -0.72860
Cu163      Cu  0.49502916  0.99843769  0.56057602     1.04560
Cu164      Cu  0.49711794  0.99454450  0.95705123     1.04490
C165        C  0.40421233  0.42536340  0.00119632     0.93440
C166        C  0.08896833  0.06866878  0.01225961     0.92580
C167        C  0.42819081  0.09648417  0.00739162     0.84730
C168        C  0.06521669  0.40058992  0.00527514     0.91000
C169        C  0.45608501  0.22565584  0.81914424    -0.05280
C170        C  0.46813722  0.17055392  0.83989510    -0.32710
C171        C  0.46770339  0.16157633  0.90274471     0.36540
C172        C  0.43109389  0.19213476  0.94272421    -0.05640
C173        C  0.41121449  0.24431411  0.91770953    -0.32610
C174        C  0.42588781  0.26286750  0.85873807     0.36450
H175        H  0.99393542  0.14259968  0.81092303     0.16820
O176        O  0.51233667  0.13476656  0.92546698    -0.60100
H177        H  0.38536607  0.27167881  0.94454300     0.16830
O178        O  0.41312525  0.31822706  0.84157958    -0.60200
H179        H  0.37624056  0.31478973  0.82386402     0.43830
H180        H  0.01979852  0.10132498  0.89713446     0.43780
C181        C  0.44537903  0.23856085  0.68218132    -0.05280
C182        C  0.43876431  0.27723060  0.63394714    -0.32710
C183        C  0.43066872  0.25516316  0.57475675     0.36540
C184        C  0.41900331  0.19469187  0.56507083    -0.05640
C185        C  0.40401096  0.16466547  0.61913397    -0.32610
C186        C  0.42124546  0.18348431  0.67615096     0.36450
H187        H  0.45248721  0.32211250  0.63907158     0.16820
O188        O  0.43477748  0.29389031  0.52865774    -0.60100
H189        H  0.38156505  0.12419742  0.61688121     0.16830
O190        O  0.42020006  0.14502255  0.72285849    -0.60200
H191        H  0.38305995  0.14892224  0.74199993     0.43830
H192        H  0.47269151  0.29062084  0.51192240     0.43780
C193        C  0.07773965  0.31173454  0.93136043    -0.05280
C194        C  0.08348643  0.25228161  0.91298385    -0.32710
C195        C  0.07379548  0.23363526  0.85256749     0.36540
C196        C  0.04753139  0.27108406  0.81277784    -0.05640
C197        C  0.05067629  0.33028670  0.82663311    -0.32610
C198        C  0.07630381  0.34921414  0.87964126     0.36450
H199        H  0.10115516  0.22128124  0.94243324     0.16820
O200        O  0.08770791  0.17840846  0.83342281    -0.60100
H201        H  0.03380564  0.36212797  0.79681630     0.16830
O202        O  0.10674727  0.40000800  0.87740658    -0.60200
H203        H  0.08647060  0.42856813  0.85325760     0.43830
H204        H  0.12525985  0.18217706  0.81542377     0.43780
C205        C  0.07471198  0.30384266  0.55695941    -0.05280
C206        C  0.05989734  0.24434245  0.56156394    -0.32710
C207        C  0.04984219  0.21907938  0.61934598     0.36540
C208        C  0.04549943  0.25487416  0.67254951    -0.05640
C209        C  0.06770762  0.31017227  0.66927994    -0.32610
C210        C  0.08638682  0.33173163  0.61391585     0.36450
H211        H  0.05428997  0.21686652  0.52220233     0.16820
O212        O  0.53883152  0.16056769  0.62390508    -0.60100
H213        H  0.07024766  0.33815026  0.70883400     0.16830
O214        O  0.11992293  0.37919939  0.61609830    -0.60200
H215        H  0.15201803  0.36472634  0.63719698     0.43830
H216        H  0.51503858  0.14990206  0.58975662     0.43780
C217        C  0.31678771  0.43366963  0.93193872    -0.05280
C218        C  0.26447680  0.41417201  0.91257223    -0.32710
C219        C  0.24946872  0.41494809  0.85173589     0.36540
C220        C  0.27921680  0.44824529  0.81057211    -0.05640
C221        C  0.33257778  0.46241621  0.82441362    -0.32610
C222        C  0.34861601  0.46229167  0.88531475     0.36450
H223        H  0.23655557  0.39278871  0.94290019     0.16820
O224        O  0.20208384  0.38869558  0.83376598    -0.60100
H225        H  0.35518876  0.99015894  0.79315164     0.16830
O226        O  0.38303399  0.50671457  0.90025307    -0.60200
H227        H  0.41521149  0.00411751  0.87151752     0.43830
H228        H  0.21267418  0.34830190  0.82159024     0.43780
C229        C  0.31087275  0.44476897  0.55289515    -0.05280
C230        C  0.33657034  0.48945641  0.58743100    -0.32710
C231        C  0.32431620  0.49911846  0.64977710     0.36540
C232        C  0.28140454  0.46807116  0.67813174    -0.05640
C233        C  0.25564463  0.42511788  0.64416138    -0.32610
C234        C  0.26264770  0.42366596  0.58097855     0.36450
H235        H  0.36586393  0.51740223  0.56572389     0.16820
O236        O  0.35069678  0.54264244  0.68122688    -0.60100
H237        H  0.22199949  0.40302368  0.66572624     0.16830
O238        O  0.21985567  0.40705079  0.54670226    -0.60200
H239        H  0.20695003  0.44293281  0.52740835     0.43830
H240        H  0.38747680  0.52675504  0.68935353     0.43780
C241        C  0.17844936  0.06465088  0.94704835    -0.05280
C242        C  0.14791656  0.06975869  0.89297583    -0.32710
C243        C  0.16687421  0.04786371  0.83676225     0.36540
C244        C  0.22302375  0.03823450  0.82811672    -0.05640
C245        C  0.25662992  0.05688004  0.87524958    -0.32610
C246        C  0.23576184  0.06029753  0.93479681     0.36450
H247        H  0.10993473  0.09262835  0.89241368     0.16820
O248        O  0.13010328  0.03702922  0.79204576    -0.60100
H249        H  0.30023400  0.06116443  0.86742411     0.16830
O250        O  0.27289657  0.06175076  0.97929218    -0.60200
H251        H  0.26639187  0.02485068  0.00026360     0.43830
H252        H  0.12091895  0.07578904  0.77598832     0.43780
C253        C  0.20437445  0.03689057  0.69258683    -0.05280
C254        C  0.22703918  0.08498179  0.66530260    -0.32710
C255        C  0.22139955  0.09130043  0.60307489     0.36540
C256        C  0.17966547  0.06281029  0.56924510    -0.05640
C257        C  0.15411165  0.01625578  0.60080726    -0.32610
C258        C  0.16202997  0.00737701  0.66299237     0.36450
H259        H  0.26073169  0.10750208  0.68715016     0.16820
O260        O  0.26269983  0.11953859  0.57439856    -0.60100
H261        H  0.12743448  0.98633227  0.57748525     0.16830
O262        O  0.13411738  0.96389748  0.69258471    -0.60200
H263        H  0.09511424  0.97610602  0.69399386     0.43830
H264        H  0.29645106  0.09719825  0.58175462     0.43780
O265        O  0.31623564  0.68728686  0.45012361    -0.72760
O266        O  0.18351048  0.80280423  0.44773963    -0.73740
O267        O  0.30442623  0.81690748  0.44963110    -0.62360
O268        O  0.19423695  0.67621019  0.45419793    -0.70770
O269        O  0.18791109  0.68623943  0.05292428    -0.70320
O270        O  0.30297520  0.82281075  0.04888870    -0.61570
O271        O  0.18115403  0.80767941  0.04694700    -0.74080
O272        O  0.31595769  0.70206277  0.04845501    -0.72860
Cu273      Cu  0.24977215  0.74574451  0.44717483     1.04560
Cu274      Cu  0.24700650  0.75437943  0.05228469     1.04330
C275        C  0.34033447  0.67971827  0.00060676     0.93440
C276        C  0.15826525  0.82030166  0.49697186     0.92580
C277        C  0.31921674  0.84481986  0.99839336     0.84730
C278        C  0.17456117  0.65668074  0.50515397     0.91000
C279        C  0.15371538  0.58954894  0.50944108    -0.02300
C280        C  0.24730407  0.49520392  0.28293588     0.00750
C281        C  0.24466349  0.50006062  0.22240371     0.00750
C282        C  0.33935392  0.91193241  0.49580602    -0.02300
C283        C  0.09451053  0.83598738  0.49713928    -0.02300
C284        C  0.49757394  0.74562511  0.21567832     0.00750
C285        C  0.49946108  0.74972388  0.27780495     0.00750
C286        C  0.40443100  0.66385342  0.50298941    -0.02300
O287        O  0.42630840  0.94048429  0.05218283    -0.72760
O288        O  0.06282613  0.55731806  0.06220668    -0.73740
O289        O  0.44514931  0.57428541  0.05700560    -0.62360
O290        O  0.04757917  0.92387628  0.05620298    -0.70770
O291        O  0.04724873  0.92595484  0.45925851    -0.70320
O292        O  0.44213947  0.56660223  0.45986454    -0.61570
O293        O  0.06604236  0.54700701  0.46515705    -0.74080
O294        O  0.43294462  0.93600028  0.45376056    -0.72860
Cu295      Cu  0.49502927  0.49844007  0.06057466     1.04560
Cu296      Cu  0.49711723  0.49454118  0.45704897     1.04490
C297        C  0.40421148  0.92536295  0.50119547     0.93440
C298        C  0.08896684  0.56866739  0.51225502     0.92580
C299        C  0.42819008  0.59648185  0.50738688     0.84730
C300        C  0.06521620  0.90058797  0.50527394     0.91000
C301        C  0.45608459  0.72565837  0.31914046    -0.05280
C302        C  0.46813663  0.67055528  0.33988866    -0.32710
C303        C  0.46770161  0.66157390  0.40273762     0.36540
C304        C  0.43109298  0.69213220  0.44271870    -0.05640
C305        C  0.41121389  0.74431261  0.41770611    -0.32610
C306        C  0.42588747  0.76286848  0.35873576     0.36450
H307        H  0.99393490  0.64260221  0.31091543     0.16820
O308        O  0.51233423  0.63476140  0.42545816    -0.60100
H309        H  0.38536601  0.77167667  0.44454099     0.16830
O310        O  0.41312556  0.81822907  0.34157999    -0.60200
H311        H  0.37623922  0.81479386  0.32386810     0.43830
H312        H  0.01979388  0.60131919  0.39712557     0.43780
C313        C  0.44537918  0.73856308  0.18217726    -0.05280
C314        C  0.43876565  0.77723254  0.13394252    -0.32710
C315        C  0.43067055  0.75516478  0.07475215     0.36540
C316        C  0.41900395  0.69469365  0.06506673    -0.05640
C317        C  0.40401073  0.66466795  0.11913003    -0.32610
C318        C  0.42124488  0.68348693  0.17614702     0.36450
H319        H  0.45248919  0.82211424  0.13906673     0.16820
O320        O  0.43478127  0.79389145  0.02865279    -0.60100
H321        H  0.38156418  0.62420028  0.11687738     0.16830
O322        O  0.42019798  0.64502565  0.22285493    -0.60200
H323        H  0.38305785  0.64892677  0.24199602     0.43830
H324        H  0.47269416  0.79061724  0.01191509     0.43780
C325        C  0.07774009  0.81173419  0.43135814    -0.05280
C326        C  0.08348532  0.75228150  0.41298037    -0.32710
C327        C  0.07379411  0.73363704  0.35256352     0.36540
C328        C  0.04753089  0.77108729  0.31277480    -0.05640
C329        C  0.05067835  0.83028979  0.32663096    -0.32610
C330        C  0.07630667  0.84921492  0.37963975     0.36450
H331        H  0.10115350  0.72127997  0.44242881     0.16820
O332        O  0.08770675  0.67841110  0.33341665    -0.60100
H333        H  0.03380944  0.86213242  0.29681450     0.16830
O334        O  0.10675171  0.90000796  0.37740758    -0.60200
H335        H  0.08647640  0.92856932  0.35325882     0.43830
H336        H  0.12525867  0.68218084  0.31541787     0.43780
C337        C  0.07471205  0.80384260  0.05695621    -0.05280
C338        C  0.05989855  0.74434199  0.06156104    -0.32710
C339        C  0.04984293  0.71907940  0.11934339     0.36540
C340        C  0.04549961  0.75487462  0.17254662    -0.05640
C341        C  0.06770702  0.81017276  0.16927661    -0.32610
C342        C  0.08638618  0.83173160  0.11391246     0.36450
H343        H  0.05429230  0.71686541  0.02219968     0.16820
O344        O  0.53883264  0.66056777  0.12390295    -0.60100
H345        H  0.07024658  0.83815117  0.20883042     0.16830
O346        O  0.11992325  0.87919816  0.11609468    -0.60200
H347        H  0.15201702  0.86472375  0.13719446     0.43830
H348        H  0.51503745  0.64990267  0.08975633     0.43780
C349        C  0.31678670  0.93366819  0.43193818    -0.05280
C350        C  0.26447737  0.91416759  0.41256978    -0.32710
C351        C  0.24947187  0.91494040  0.35173258     0.36540
C352        C  0.27921881  0.94824024  0.31057011    -0.05640
C353        C  0.33257839  0.96241572  0.32441398    -0.32610
C354        C  0.34861450  0.96229269  0.38531597     0.36450
H355        H  0.23655611  0.89278350  0.44289695     0.16820
O356        O  0.20208855  0.88868494  0.33376149    -0.60100
H357        H  0.35518627  0.49015420  0.29314893     0.16830
O358        O  0.38302904  0.00671794  0.40025692    -0.60200
H359        H  0.41521555  0.50410453  0.37151109     0.43830
H360        H  0.21268150  0.84829227  0.32158480     0.43780
C361        C  0.31087073  0.94477270  0.05289322    -0.05280
C362        C  0.33656828  0.98945799  0.08743251    -0.32710
C363        C  0.32431044  0.99911902  0.14977806     0.36540
C364        C  0.28139899  0.96806892  0.17812969    -0.05640
C365        C  0.25564076  0.92511707  0.14415596    -0.32610
C366        C  0.26264406  0.92367008  0.08097308     0.36450
H367        H  0.36586315  0.01740440  0.06572817     0.16820
O368        O  0.35068733  0.04264421  0.18123005    -0.60100
H369        H  0.22199637  0.90302122  0.16571941     0.16830
O370        O  0.21985108  0.90706170  0.04669436    -0.60200
H371        H  0.20695706  0.94294466  0.02739236     0.43830
H372        H  0.38746843  0.02675966  0.18935682     0.43780
C373        C  0.17844643  0.56465113  0.44704479    -0.05280
C374        C  0.14791569  0.56976806  0.39297193    -0.32710
C375        C  0.16687390  0.54787690  0.33675678     0.36540
C376        C  0.22302300  0.53824099  0.32811383    -0.05640
C377        C  0.25662861  0.55688014  0.37524944    -0.32610
C378        C  0.23575855  0.56028918  0.43479568     0.36450
H379        H  0.10993375  0.59263802  0.39241300     0.16820
O380        O  0.13010410  0.53705220  0.29203692    -0.60100
H381        H  0.30023356  0.56115827  0.36742747     0.16830
O382        O  0.27289124  0.56171223  0.47929324    -0.60200
H383        H  0.26635779  0.52481765  0.50026537     0.43830
H384        H  0.12093196  0.57581432  0.27597683     0.43780
C385        C  0.20437952  0.53689622  0.19258303    -0.05280
C386        C  0.22704540  0.58498516  0.16529531    -0.32710
C387        C  0.22140237  0.59130233  0.10306791     0.36540
C388        C  0.17966477  0.56281390  0.06924247    -0.05640
C389        C  0.15411091  0.51626118  0.10080743    -0.32610
C390        C  0.16203304  0.50738270  0.16299182     0.36450
H391        H  0.26073977  0.60750488  0.18713993     0.16820
O392        O  0.26270135  0.61953835  0.07438694    -0.60100
H393        H  0.12743234  0.48633736  0.07748792     0.16830
O394        O  0.13412178  0.46390354  0.19258634    -0.60200
H395        H  0.09511853  0.47611169  0.19399697     0.43830
H396        H  0.29645324  0.59719951  0.08174417     0.43780
O397        O  0.31623582  0.68728875  0.95012403    -0.72760
O398        O  0.18351051  0.80280590  0.94773928    -0.73740
O399        O  0.30442646  0.81690943  0.94963141    -0.62360
O400        O  0.19423731  0.67621202  0.95419811    -0.70770
O401        O  0.18791105  0.68623728  0.55292416    -0.70320
O402        O  0.30297507  0.82280868  0.54888841    -0.61570
O403        O  0.18115381  0.80767703  0.54694738    -0.74080
O404        O  0.31595777  0.70206089  0.54845465    -0.72860
Cu405      Cu  0.24977236  0.74574637  0.94717496     1.04560
Cu406      Cu  0.24700645  0.75437729  0.55228460     1.04330
C407        C  0.34033446  0.67971649  0.50060627     0.93440
C408        C  0.15826528  0.82030351  0.99697143     0.92580
C409        C  0.31921652  0.84481786  0.49839306     0.84730
C410        C  0.17456160  0.65668259  0.00515419     0.91000
C411        C  0.15371610  0.58955073  0.00944140    -0.02300
C412        C  0.24730586  0.49520560  0.78293592     0.00750
C413        C  0.24466503  0.50006123  0.72240365     0.00750
C414        C  0.33935416  0.91193445  0.99580630    -0.02300
C415        C  0.09451048  0.83598890  0.99713889    -0.02300
C416        C  0.49757386  0.74562379  0.71567835     0.00750
C417        C  0.49946043  0.74972339  0.77780495     0.00750
C418        C  0.40443103  0.66385523  0.00299005    -0.02300
O419        O  0.42630849  0.94048189  0.55218211    -0.72760
O420        O  0.06282543  0.55731658  0.56220630    -0.73740
O421        O  0.44514903  0.57428354  0.55700479    -0.62360
O422        O  0.04757937  0.92387502  0.55620302    -0.70770
O423        O  0.04724985  0.92595722  0.95925844    -0.70320
O424        O  0.44214012  0.56660424  0.95986536    -0.61570
O425        O  0.06604288  0.54700907  0.96515745    -0.74080
O426        O  0.43294521  0.93600205  0.95376133    -0.72860
Cu427      Cu  0.49502898  0.49843831  0.56057431     1.04560
Cu428      Cu  0.49711781  0.49454324  0.95704933     1.04490
C429        C  0.40421171  0.92536509  0.00119612     0.93440
C430        C  0.08896746  0.56866921  0.01225540     0.92580
C431        C  0.42819038  0.59648371  0.00738767     0.84730
C432        C  0.06521647  0.90058965  0.00527383     0.91000
C433        C  0.45608373  0.72565822  0.81914035    -0.05280
C434        C  0.46813605  0.67055554  0.83988940    -0.32710
C435        C  0.46770172  0.66157545  0.90273858     0.36540
C436        C  0.43109304  0.69213391  0.94271933    -0.05640
C437        C  0.41121372  0.74431394  0.91770614    -0.32610
C438        C  0.42588665  0.76286880  0.85873523     0.36450
H439        H  0.99393424  0.64260216  0.81091641     0.16820
O440        O  0.51233479  0.63476403  0.92545946    -0.60100
H441        H  0.38536603  0.77167836  0.94454083     0.16830
O442        O  0.41312421  0.81822894  0.84157848    -0.60200
H443        H  0.37623805  0.81479295  0.82386628     0.43830
H444        H  0.01979508  0.60132182  0.89712679     0.43780
C445        C  0.44537942  0.73856122  0.68217680    -0.05280
C446        C  0.43876588  0.77723062  0.63394203    -0.32710
C447        C  0.43067085  0.75516286  0.57475166     0.36540
C448        C  0.41900409  0.69469176  0.56506618    -0.05640
C449        C  0.40401097  0.66466606  0.61912953    -0.32610
C450        C  0.42124541  0.68348493  0.67614649     0.36450
H451        H  0.45248935  0.82211235  0.63906625     0.16820
O452        O  0.43478187  0.79388957  0.52865237    -0.60100
H453        H  0.38156429  0.62419848  0.61687690     0.16830
O454        O  0.42019913  0.64502348  0.72285427    -0.60200
H455        H  0.38305906  0.64892414  0.74199561     0.43830
H456        H  0.47269468  0.79061492  0.51191455     0.43780
C457        C  0.07773969  0.81173545  0.93135791    -0.05280
C458        C  0.08348537  0.75228276  0.91298035    -0.32710
C459        C  0.07379360  0.73363776  0.85256377     0.36540
C460        C  0.04752976  0.77108752  0.81277508    -0.05640
C461        C  0.05067637  0.83029009  0.82663104    -0.32610
C462        C  0.07630499  0.84921591  0.87963941     0.36450
H463        H  0.10115409  0.72128160  0.94242882     0.16820
O464        O  0.08770634  0.67841173  0.83341723    -0.60100
H465        H  0.03380714  0.86213227  0.79681428     0.16830
O466        O  0.10675034  0.90000864  0.87740586    -0.60200
H467        H  0.08647455  0.92856996  0.85325754     0.43830
H468        H  0.12525832  0.68218142  0.81541860     0.43780
C469        C  0.07471209  0.80384131  0.55695669    -0.05280
C470        C  0.05989894  0.74434062  0.56156159    -0.32710
C471        C  0.04984345  0.71907807  0.61934393     0.36540
C472        C  0.04549976  0.75487338  0.67254705    -0.05640
C473        C  0.06770708  0.81017160  0.66927709    -0.32610
C474        C  0.08638622  0.83173049  0.61391295     0.36450
H475        H  0.05429292  0.71686391  0.52220029     0.16820
O476        O  0.53883362  0.66056635  0.62390355    -0.60100
H477        H  0.07024651  0.83815003  0.70883093     0.16830
O478        O  0.11992312  0.87919727  0.61609522    -0.60200
H479        H  0.15201724  0.86472299  0.63719453     0.43830
H480        H  0.51503751  0.64990132  0.58975770     0.43780
C481        C  0.31678726  0.93367008  0.93193844    -0.05280
C482        C  0.26447804  0.91416941  0.91256979    -0.32710
C483        C  0.24947277  0.91494221  0.85173262     0.36540
C484        C  0.27922017  0.94824175  0.81057032    -0.05640
C485        C  0.33257969  0.96241718  0.82441440    -0.32610
C486        C  0.34861535  0.96229448  0.88531648     0.36450
H487        H  0.23655666  0.89278513  0.94289663     0.16820
O488        O  0.20208867  0.88868819  0.83376179    -0.60100
H489        H  0.35518770  0.49015616  0.79314978     0.16830
O490        O  0.38302964  0.00671987  0.90025761    -0.60200
H491        H  0.41521542  0.50410813  0.87151272     0.43830
H492        H  0.21268064  0.84829545  0.82158429     0.43780
C493        C  0.31087104  0.94477047  0.55289349    -0.05280
C494        C  0.33656885  0.98945595  0.58743219    -0.32710
C495        C  0.32431183  0.99911724  0.64977786     0.36540
C496        C  0.28140003  0.96806816  0.67813003    -0.05640
C497        C  0.25564118  0.92511624  0.64415691    -0.32610
C498        C  0.26264459  0.92366801  0.58097402     0.36450
H499        H  0.36586357  0.01740212  0.56572732     0.16820
O500        O  0.35068991  0.04264182  0.68122948    -0.60100
H501        H  0.22199656  0.90302093  0.66572068     0.16830
O502        O  0.21985190  0.90705813  0.54669569    -0.60200
H503        H  0.20695542  0.94294088  0.52739537     0.43830
H504        H  0.38747085  0.02675651  0.68935558     0.43780
C505        C  0.17844756  0.56465283  0.94704515    -0.05280
C506        C  0.14791667  0.56976831  0.89297219    -0.32710
C507        C  0.16687527  0.54787748  0.83675703     0.36540
C508        C  0.22302445  0.53824253  0.82811394    -0.05640
C509        C  0.25662989  0.55688230  0.87524955    -0.32610
C510        C  0.23575982  0.56029275  0.93479589     0.36450
H511        H  0.10993460  0.59263794  0.89241272     0.16820
O512        O  0.13010572  0.53705289  0.79203692    -0.60100
H513        H  0.30023475  0.56116135  0.86742730     0.16830
O514        O  0.27289263  0.56172192  0.97929332    -0.60200
H515        H  0.26636505  0.52482611  0.00026511     0.43830
H516        H  0.12093394  0.57581505  0.77597663     0.43780
C517        C  0.20438124  0.53689644  0.69258234    -0.05280
C518        C  0.22704764  0.58498421  0.66529277    -0.32710
C519        C  0.22140358  0.59129992  0.60306534     0.36540
C520        C  0.17966432  0.56281228  0.56924198    -0.05640
C521        C  0.15411029  0.51626064  0.60080843    -0.32610
C522        C  0.16203399  0.50738262  0.66299257     0.36450
H523        H  0.26074283  0.60750380  0.68713597     0.16820
O524        O  0.26270215  0.61953468  0.57438222    -0.60100
H525        H  0.12743108  0.48633667  0.57749009     0.16830
O526        O  0.13412378  0.46390317  0.69258791    -0.60200
H527        H  0.09512033  0.47611060  0.69399907     0.43830
H528        H  0.29645430  0.59719660  0.58174038     0.43780
O529        O  0.81623644  0.18728717  0.45012616    -0.72760
O530        O  0.68351047  0.30280418  0.44774167    -0.73740
O531        O  0.80442527  0.31690750  0.44963120    -0.62360
O532        O  0.69423743  0.17620911  0.45420060    -0.70770
O533        O  0.68791109  0.18623877  0.05292687    -0.70320
O534        O  0.80297561  0.32280947  0.04888887    -0.61570
O535        O  0.68115332  0.30767760  0.04694910    -0.74080
O536        O  0.81595706  0.20206162  0.04845770    -0.72860
Cu537      Cu  0.74977212  0.24574415  0.44717664     1.04560
Cu538      Cu  0.74700632  0.25437839  0.05228649     1.04330
C539        C  0.84033453  0.17971793  0.00060975     0.93440
C540        C  0.65826509  0.32030114  0.49697405     0.92580
C541        C  0.81921654  0.34481913  0.99839347     0.84730
C542        C  0.67456205  0.15667952  0.50515678     0.91000
C543        C  0.65371681  0.08954777  0.50944420    -0.02300
C544        C  0.74730494  0.99519936  0.28293647     0.00750
C545        C  0.74465851  0.00005414  0.22240461     0.00750
C546        C  0.83935453  0.41193134  0.49580652    -0.02300
C547        C  0.59451055  0.33598768  0.49714151    -0.02300
C548        C  0.99757416  0.24562494  0.21568169     0.00750
C549        C  0.99946277  0.24972012  0.27780834     0.00750
C550        C  0.90443113  0.16385382  0.50299366    -0.02300
O551        O  0.92630903  0.44048382  0.05218269    -0.72760
O552        O  0.56282736  0.05731679  0.06221101    -0.73740
O553        O  0.94514980  0.07428537  0.05700932    -0.62360
O554        O  0.54757959  0.42387739  0.05620383    -0.70770
O555        O  0.54724885  0.42595448  0.45925974    -0.70320
O556        O  0.94214054  0.06660358  0.45986805    -0.61570
O557        O  0.56604258  0.04700700  0.46516154    -0.74080
O558        O  0.93294538  0.43599734  0.45376090    -0.72860
Cu559      Cu  0.99502944  0.99843947  0.06057658     1.04560
Cu560      Cu  0.99711738  0.99454241  0.45705064     1.04490
C561        C  0.90421217  0.42536120  0.50119589     0.93440
C562        C  0.58896776  0.06866684  0.51225911     0.92580
C563        C  0.92819062  0.09648235  0.50739073     0.84730
C564        C  0.56521652  0.40058836  0.50527541     0.91000
C565        C  0.95608598  0.22565593  0.31914441    -0.05280
C566        C  0.96813813  0.17055372  0.33989462    -0.32710
C567        C  0.96770364  0.16157510  0.40274407     0.36540
C568        C  0.93109395  0.19213321  0.44272370    -0.05640
C569        C  0.91121463  0.24431281  0.41770947    -0.32610
C570        C  0.92588859  0.26286711  0.35873851     0.36450
H571        H  0.49393631  0.14259976  0.31092217     0.16820
O572        O  0.01233655  0.13476457  0.42546622    -0.60100
H573        H  0.88536596  0.27167713  0.44454304     0.16830
O574        O  0.91312636  0.31822700  0.34158082    -0.60200
H575        H  0.87624156  0.31479023  0.32386545     0.43830
H576        H  0.51979764  0.10132265  0.39713350     0.43780
C577        C  0.94537882  0.23856277  0.18218184    -0.05280
C578        C  0.93876411  0.27723256  0.13394766    -0.32710
C579        C  0.93066846  0.25516511  0.07475727     0.36540
C580        C  0.91900316  0.19469379  0.06507144    -0.05640
C581        C  0.90401070  0.16466744  0.11913454    -0.32610
C582        C  0.92124494  0.18348638  0.17615155     0.36450
H583        H  0.95248708  0.32211444  0.13907207     0.16820
O584        O  0.93477700  0.29389221  0.02865819    -0.60100
H585        H  0.88156492  0.12419930  0.11688176     0.16830
O586        O  0.92019895  0.14502480  0.22285923    -0.60200
H587        H  0.88305881  0.14892499  0.24200049     0.43830
H588        H  0.97269106  0.29062297  0.01192287     0.43780
C589        C  0.57774002  0.31173343  0.43136067    -0.05280
C590        C  0.58348645  0.25228053  0.41298384    -0.32710
C591        C  0.57379604  0.23363471  0.35256720     0.36540
C592        C  0.54753244  0.27108393  0.31277758    -0.05640
C593        C  0.55067798  0.33028650  0.32663309    -0.32610
C594        C  0.57630522  0.34921333  0.37964163     0.36450
H595        H  0.60115470  0.22127981  0.44243318     0.16820
O596        O  0.58770849  0.17840803  0.33342218    -0.60100
H597        H  0.53380758  0.36212815  0.29681657     0.16830
O598        O  0.60674838  0.40000748  0.37740813    -0.60200
H599        H  0.58647208  0.42856765  0.35325884     0.43830
H600        H  0.62526037  0.18217676  0.31542302     0.43780
C601        C  0.57471191  0.30384391  0.05695894    -0.05280
C602        C  0.55989702  0.24434377  0.06156348    -0.32710
C603        C  0.54984175  0.21908072  0.11934557     0.36540
C604        C  0.54549926  0.25487548  0.17254913    -0.05640
C605        C  0.56770743  0.31017356  0.16927945    -0.32610
C606        C  0.58638666  0.33173281  0.11391533     0.36450
H607        H  0.55428947  0.21686788  0.02220186     0.16820
O608        O  0.03883069  0.16056912  0.12390470    -0.60100
H609        H  0.57024750  0.33815159  0.20883346     0.16830
O610        O  0.61992292  0.37920036  0.11609771    -0.60200
H611        H  0.65201767  0.36472716  0.13719686     0.43830
H612        H  0.01503852  0.14990340  0.08975561     0.43780
C613        C  0.81678733  0.43366770  0.43193845    -0.05280
C614        C  0.76447620  0.41417032  0.41257238    -0.32710
C615        C  0.74946778  0.41494626  0.35173604     0.36540
C616        C  0.77921536  0.44824361  0.31057194    -0.05640
C617        C  0.83257649  0.46241444  0.32441304    -0.32610
C618        C  0.84861542  0.46228952  0.38531399     0.36450
H619        H  0.73655509  0.39278734  0.44290078     0.16820
O620        O  0.70208359  0.38869237  0.33376608    -0.60100
H621        H  0.85518725  0.99015764  0.29315124     0.16830
O622        O  0.88303409  0.50671199  0.40025176    -0.60200
H623        H  0.91521070  0.00411551  0.37151668     0.43830
H624        H  0.71267477  0.34829867  0.32159143     0.43780
C625        C  0.81087240  0.44477123  0.05289490    -0.05280
C626        C  0.83656984  0.48945829  0.08743147    -0.32710
C627        C  0.82431483  0.49912003  0.14977745     0.36540
C628        C  0.78140341  0.46807180  0.17813142    -0.05640
C629        C  0.75564402  0.42511875  0.14416032    -0.32610
C630        C  0.76264703  0.42366818  0.08097749     0.36450
H631        H  0.86586365  0.51740434  0.06572499     0.16820
O632        O  0.85069427  0.54264454  0.18122769    -0.60100
H633        H  0.72199907  0.40302406  0.16572481     0.16830
O634        O  0.71985473  0.40705461  0.04670070    -0.60200
H635        H  0.70695173  0.44293685  0.02740499     0.43830
H636        H  0.88747450  0.52675792  0.18935478     0.43780
C637        C  0.67844829  0.06464921  0.44704793    -0.05280
C638        C  0.64791559  0.06975851  0.39297553    -0.32710
C639        C  0.66687282  0.04786321  0.33676194     0.36540
C640        C  0.72302229  0.03823320  0.32811650    -0.05640
C641        C  0.75662864  0.05687830  0.37524927    -0.32610
C642        C  0.73576063  0.06029415  0.43479645     0.36450
H643        H  0.60993392  0.09262852  0.39241397     0.16820
O644        O  0.63010161  0.03702854  0.29204575    -0.60100
H645        H  0.80023276  0.06116202  0.36742395     0.16830
O646        O  0.77289531  0.06174126  0.47929189    -0.60200
H647        H  0.76638486  0.02484236  0.50026360     0.43830
H648        H  0.62091682  0.07578832  0.27598853     0.43780
C649        C  0.70437270  0.03689041  0.19258753    -0.05280
C650        C  0.72703682  0.08498288  0.16530523    -0.32710
C651        C  0.72139821  0.09130301  0.10307756     0.36540
C652        C  0.67966585  0.06281202  0.06924567    -0.05640
C653        C  0.65411231  0.01625631  0.10080626    -0.32610
C654        C  0.66202906  0.00737707  0.16299160     0.36450
H655        H  0.76072846  0.10750334  0.18715423     0.16820
O656        O  0.76269890  0.11954243  0.07440338    -0.60100
H657        H  0.62743581  0.98633293  0.07748304     0.16830
O658        O  0.63411547  0.96389778  0.19258312    -0.60200
H659        H  0.59511252  0.97610700  0.19399176     0.43830
H660        H  0.79644988  0.09720134  0.08175852     0.43780
O661        O  0.81623659  0.18728905  0.95012660    -0.72760
O662        O  0.68351046  0.30280578  0.94774131    -0.73740
O663        O  0.80442550  0.31690941  0.94963150    -0.62360
O664        O  0.69423780  0.17621091  0.95420079    -0.70770
O665        O  0.68791114  0.18623653  0.55292675    -0.70320
O666        O  0.80297554  0.32280734  0.54888859    -0.61570
O667        O  0.68115313  0.30767513  0.54694948    -0.74080
O668        O  0.81595717  0.20205968  0.54845733    -0.72860
Cu669      Cu  0.74977232  0.24574598  0.94717677     1.04560
Cu670      Cu  0.74700631  0.25437618  0.55228640     1.04330
C671        C  0.84033456  0.17971614  0.50060923     0.93440
C672        C  0.65826509  0.32030297  0.99697360     0.92580
C673        C  0.81921637  0.34481710  0.49839318     0.84730
C674        C  0.67456243  0.15668142  0.00515701     0.91000
C675        C  0.65371744  0.08954962  0.00944459    -0.02300
C676        C  0.74730668  0.99520091  0.78293656     0.00750
C677        C  0.74466000  0.00005465  0.72240459     0.00750
C678        C  0.83935468  0.41193340  0.99580677    -0.02300
C679        C  0.59451046  0.33598911  0.99714108    -0.02300
C680        C  0.99757409  0.24562357  0.71568169     0.00750
C681        C  0.99946211  0.24971964  0.77780832     0.00750
C682        C  0.90443112  0.16385561  0.00299432    -0.02300
O683        O  0.92630907  0.44048154  0.55218216    -0.72760
O684        O  0.56282663  0.05731537  0.56221044    -0.73740
O685        O  0.94514944  0.07428340  0.55700841    -0.62360
O686        O  0.54757970  0.42387605  0.55620408    -0.70770
O687        O  0.54724967  0.42595656  0.95925946    -0.70320
O688        O  0.94214086  0.06660541  0.95986900    -0.61570
O689        O  0.56604290  0.04700938  0.96516209    -0.74080
O690        O  0.93294578  0.43599937  0.95376144    -0.72860
Cu691      Cu  0.99502916  0.99843769  0.56057604     1.04560
Cu692      Cu  0.99711795  0.99454450  0.95705121     1.04490
C693        C  0.90421231  0.42536341  0.00119636     0.93440
C694        C  0.58896830  0.06866880  0.01225966     0.92580
C695        C  0.92819084  0.09648420  0.00739163     0.84730
C696        C  0.56521670  0.40058993  0.00527512     0.91000
C697        C  0.95608506  0.22565585  0.81914428    -0.05280
C698        C  0.96813731  0.17055394  0.83989518    -0.32710
C699        C  0.96770347  0.16157641  0.90274481     0.36540
C700        C  0.93109392  0.19213481  0.94272426    -0.05640
C701        C  0.91121449  0.24431414  0.91770955    -0.32610
C702        C  0.92588783  0.26286751  0.85873808     0.36450
H703        H  0.49393532  0.14259966  0.81092292     0.16820
O704        O  0.01233677  0.13476671  0.92546713    -0.60100
H705        H  0.88536605  0.27167884  0.94454299     0.16830
O706        O  0.91312525  0.31822705  0.84157955    -0.60200
H707        H  0.87624059  0.31478968  0.82386393     0.43830
H708        H  0.51979836  0.10132481  0.89713431     0.43780
C709        C  0.94537905  0.23856085  0.68218137    -0.05280
C710        C  0.93876431  0.27723060  0.63394720    -0.32710
C711        C  0.93066870  0.25516317  0.57475681     0.36540
C712        C  0.91900332  0.19469187  0.56507089    -0.05640
C713        C  0.90401097  0.16466547  0.61913403    -0.32610
C714        C  0.92124549  0.18348431  0.67615101     0.36450
H715        H  0.95248719  0.32211251  0.63907164     0.16820
O716        O  0.93477743  0.29389033  0.52865780    -0.60100
H717        H  0.88156507  0.12419742  0.61688126     0.16830
O718        O  0.92020012  0.14502253  0.72285853    -0.60200
H719        H  0.88306002  0.14892222  0.74200000     0.43830
H720        H  0.97269148  0.29062091  0.51192249     0.43780
C721        C  0.57773964  0.31173453  0.93136042    -0.05280
C722        C  0.58348640  0.25228160  0.91298385    -0.32710
C723        C  0.57379541  0.23363525  0.85256749     0.36540
C724        C  0.54753133  0.27108405  0.81277784    -0.05640
C725        C  0.55067624  0.33028669  0.82663311    -0.32610
C726        C  0.57630379  0.34921413  0.87964124     0.36450
H727        H  0.60115513  0.22128122  0.94243322     0.16820
O728        O  0.58770782  0.17840844  0.83342281    -0.60100
H729        H  0.53380559  0.36212796  0.79681629     0.16830
O730        O  0.60674726  0.40000798  0.87740654    -0.60200
H731        H  0.58647059  0.42856811  0.85325757     0.43830
H732        H  0.62525974  0.18217703  0.81542373     0.43780
C733        C  0.57471199  0.30384265  0.55695942    -0.05280
C734        C  0.55989736  0.24434245  0.56156394    -0.32710
C735        C  0.54984219  0.21907938  0.61934598     0.36540
C736        C  0.54549941  0.25487415  0.67254950    -0.05640
C737        C  0.56770760  0.31017227  0.66927995    -0.32610
C738        C  0.58638681  0.33173162  0.61391586     0.36450
H739        H  0.55429000  0.21686651  0.52220234     0.16820
O740        O  0.03883152  0.16056770  0.62390509    -0.60100
H741        H  0.57024763  0.33815025  0.70883401     0.16830
O742        O  0.61992291  0.37919939  0.61609832    -0.60200
H743        H  0.65201802  0.36472634  0.63719701     0.43830
H744        H  0.01503860  0.14990206  0.58975661     0.43780
C745        C  0.81678770  0.43366963  0.93193875    -0.05280
C746        C  0.76447679  0.41417202  0.91257225    -0.32710
C747        C  0.74946871  0.41494810  0.85173591     0.36540
C748        C  0.77921680  0.44824529  0.81057213    -0.05640
C749        C  0.83257779  0.46241620  0.82441365    -0.32610
C750        C  0.84861601  0.46229167  0.88531477     0.36450
H751        H  0.73655555  0.39278872  0.94290021     0.16820
O752        O  0.70208384  0.38869559  0.83376599    -0.60100
H753        H  0.85518871  0.99015911  0.79315176     0.16830
O754        O  0.88303400  0.50671456  0.90025308    -0.60200
H755        H  0.91521132  0.00411781  0.87151768     0.43830
H756        H  0.71267418  0.34830190  0.82159029     0.43780
C757        C  0.81087275  0.44476900  0.55289517    -0.05280
C758        C  0.83657036  0.48945640  0.58743104    -0.32710
C759        C  0.82431621  0.49911844  0.64977714     0.36540
C760        C  0.78140453  0.46807116  0.67813176    -0.05640
C761        C  0.75564461  0.42511790  0.64416138    -0.32610
C762        C  0.76264769  0.42366600  0.58097854     0.36450
H763        H  0.86586396  0.51740222  0.56572395     0.16820
O764        O  0.85069679  0.54264241  0.68122693    -0.60100
H765        H  0.72199947  0.40302370  0.66572623     0.16830
O766        O  0.71985566  0.40705084  0.54670224    -0.60200
H767        H  0.70695005  0.44293286  0.52740830     0.43830
H768        H  0.88747682  0.52675501  0.68935356     0.43780
C769        C  0.67844931  0.06465089  0.94704838    -0.05280
C770        C  0.64791650  0.06975871  0.89297586    -0.32710
C771        C  0.66687416  0.04786374  0.83676228     0.36540
C772        C  0.72302370  0.03823456  0.82811674    -0.05640
C773        C  0.75662986  0.05688013  0.87524959    -0.32610
C774        C  0.73576179  0.06029755  0.93479683     0.36450
H775        H  0.60993468  0.09262838  0.89241371     0.16820
O776        O  0.63010323  0.03702925  0.79204579    -0.60100
H777        H  0.80023393  0.06116456  0.86742411     0.16830
O778        O  0.77289653  0.06175073  0.97929219    -0.60200
H779        H  0.76639181  0.02485064  0.00026359     0.43830
H780        H  0.62091890  0.07578906  0.77598833     0.43780
C781        C  0.70437441  0.03689060  0.69258686    -0.05280
C782        C  0.72703915  0.08498182  0.66530263    -0.32710
C783        C  0.72139953  0.09130046  0.60307492     0.36540
C784        C  0.67966545  0.06281032  0.56924512    -0.05640
C785        C  0.65411164  0.01625580  0.60080727    -0.32610
C786        C  0.66202994  0.00737703  0.66299239     0.36450
H787        H  0.76073165  0.10750211  0.68715020     0.16820
O788        O  0.76269982  0.11953861  0.57439860    -0.60100
H789        H  0.62743447  0.98633229  0.57748526     0.16830
O790        O  0.63411735  0.96389751  0.69258472    -0.60200
H791        H  0.59511421  0.97610605  0.69399386     0.43830
H792        H  0.79645104  0.09719827  0.58175466     0.43780
O793        O  0.81623565  0.68728688  0.45012363    -0.72760
O794        O  0.68351047  0.80280423  0.44773963    -0.73740
O795        O  0.80442621  0.81690750  0.44963113    -0.62360
O796        O  0.69423694  0.67621020  0.45419794    -0.70770
O797        O  0.68791109  0.68623945  0.05292429    -0.70320
O798        O  0.80297520  0.82281078  0.04888872    -0.61570
O799        O  0.68115403  0.80767943  0.04694702    -0.74080
O800        O  0.81595769  0.70206279  0.04845504    -0.72860
Cu801      Cu  0.74977214  0.74574452  0.44717485     1.04560
Cu802      Cu  0.74700650  0.75437946  0.05228471     1.04330
C803        C  0.84033447  0.67971829  0.00060679     0.93440
C804        C  0.65826524  0.82030166  0.49697186     0.92580
C805        C  0.81921674  0.84481989  0.99839338     0.84730
C806        C  0.67456116  0.65668075  0.50515399     0.91000
C807        C  0.65371535  0.58954895  0.50944110    -0.02300
C808        C  0.74730404  0.49520396  0.28293589     0.00750
C809        C  0.74466344  0.50006064  0.22240373     0.00750
C810        C  0.83935390  0.91193243  0.49580607    -0.02300
C811        C  0.59451052  0.83598738  0.49713928    -0.02300
C812        C  0.99757396  0.74562511  0.21567834     0.00750
C813        C  0.99946112  0.74972389  0.27780497     0.00750
C814        C  0.90443101  0.66385345  0.50298943    -0.02300
O815        O  0.92630843  0.94048428  0.05218282    -0.72760
O816        O  0.56282613  0.55731808  0.06220667    -0.73740
O817        O  0.94514931  0.57428541  0.05700564    -0.62360
O818        O  0.54757912  0.92387625  0.05620301    -0.70770
O819        O  0.54724877  0.92595486  0.45925850    -0.70320
O820        O  0.94213955  0.56660230  0.45986453    -0.61570
O821        O  0.56604230  0.54700706  0.46515709    -0.74080
O822        O  0.93294459  0.93600029  0.45376060    -0.72860
Cu823      Cu  0.99502926  0.49844007  0.06057469     1.04560
Cu824      Cu  0.99711724  0.49454120  0.45704894     1.04490
C825        C  0.90421146  0.92536296  0.50119551     0.93440
C826        C  0.58896681  0.56866740  0.51225506     0.92580
C827        C  0.92819010  0.59648188  0.50738688     0.84730
C828        C  0.56521621  0.90058798  0.50527393     0.91000
C829        C  0.95608464  0.72565839  0.31914049    -0.05280
C830        C  0.96813670  0.67055531  0.33988873    -0.32710
C831        C  0.96770168  0.66157399  0.40273770     0.36540
C832        C  0.93109301  0.69213225  0.44271875    -0.05640
C833        C  0.91121389  0.74431264  0.41770612    -0.32610
C834        C  0.92588749  0.76286850  0.35873577     0.36450
H835        H  0.49393482  0.64260218  0.31091533     0.16820
O836        O  0.01233432  0.63476156  0.42545830    -0.60100
H837        H  0.88536600  0.77167670  0.44454098     0.16830
O838        O  0.91312556  0.81822907  0.34157996    -0.60200
H839        H  0.87623924  0.81479383  0.32386803     0.43830
H840        H  0.51979373  0.60131901  0.39712543     0.43780
C841        C  0.94537920  0.73856308  0.18217730    -0.05280
C842        C  0.93876565  0.77723254  0.13394256    -0.32710
C843        C  0.93067054  0.75516479  0.07475219     0.36540
C844        C  0.91900395  0.69469366  0.06506677    -0.05640
C845        C  0.90401073  0.66466795  0.11913007    -0.32610
C846        C  0.92124490  0.68348693  0.17614706     0.36450
H847        H  0.95248917  0.82211425  0.13906678     0.16820
O848        O  0.93478124  0.79389147  0.02865284    -0.60100
H849        H  0.88156419  0.62420028  0.11687742     0.16830
O850        O  0.92019803  0.64502564  0.22285497    -0.60200
H851        H  0.88305791  0.64892675  0.24199608     0.43830
H852        H  0.97269413  0.79061728  0.01191515     0.43780
C853        C  0.57774007  0.81173418  0.43135814    -0.05280
C854        C  0.58348529  0.75228150  0.41298038    -0.32710
C855        C  0.57379405  0.73363702  0.35256353     0.36540
C856        C  0.54753084  0.77108727  0.31277481    -0.05640
C857        C  0.55067830  0.83028978  0.32663096    -0.32610
C858        C  0.57630663  0.84921491  0.37963975     0.36450
H859        H  0.60115348  0.72127996  0.44242880     0.16820
O860        O  0.58770666  0.67841107  0.33341667    -0.60100
H861        H  0.53380939  0.86213240  0.29681450     0.16830
O862        O  0.60675169  0.90000793  0.37740754    -0.60200
H863        H  0.58647638  0.92856930  0.35325879     0.43830
H864        H  0.62525857  0.68218080  0.31541784     0.43780
C865        C  0.57471206  0.80384260  0.05695622    -0.05280
C866        C  0.55989856  0.74434200  0.06156105    -0.32710
C867        C  0.54984294  0.71907940  0.11934339     0.36540
C868        C  0.54549960  0.75487462  0.17254662    -0.05640
C869        C  0.56770702  0.81017276  0.16927662    -0.32610
C870        C  0.58638618  0.83173161  0.11391247     0.36450
H871        H  0.55429232  0.71686542  0.02219968     0.16820
O872        O  0.03883263  0.66056776  0.12390296    -0.60100
H873        H  0.57024656  0.83815117  0.20883043     0.16830
O874        O  0.61992323  0.87919818  0.11609470    -0.60200
H875        H  0.65201701  0.86472377  0.13719448     0.43830
H876        H  0.01503745  0.64990266  0.08975633     0.43780
C877        C  0.81678668  0.93366821  0.43193823    -0.05280
C878        C  0.76447734  0.91416762  0.41256983    -0.32710
C879        C  0.74947185  0.91494043  0.35173262     0.36540
C880        C  0.77921880  0.94824026  0.31057015    -0.05640
C881        C  0.83257838  0.96241575  0.32441403    -0.32610
C882        C  0.84861448  0.96229272  0.38531603     0.36450
H883        H  0.73655609  0.89278352  0.44289700     0.16820
O884        O  0.70208854  0.88868496  0.33376153    -0.60100
H885        H  0.85518622  0.49015438  0.29314904     0.16830
O886        O  0.88302901  0.00671797  0.40025699    -0.60200
H887        H  0.91521537  0.50410486  0.37151125     0.43830
H888        H  0.71268150  0.84829229  0.32158484     0.43780
C889        C  0.81087074  0.94477271  0.05289327    -0.05280
C890        C  0.83656830  0.98945798  0.08743258    -0.32710
C891        C  0.82431046  0.99911901  0.14977813     0.36540
C892        C  0.78139900  0.96806892  0.17812974    -0.05640
C893        C  0.75564075  0.92511709  0.14415600    -0.32610
C894        C  0.76264406  0.92367011  0.08097312     0.36450
H895        H  0.86586318  0.01740439  0.06572824     0.16820
O896        O  0.85068736  0.04264418  0.18123012    -0.60100
H897        H  0.72199635  0.90302124  0.16571944     0.16830
O898        O  0.71985108  0.90706172  0.04669439    -0.60200
H899        H  0.70695707  0.94294467  0.02739239     0.43830
H900        H  0.88746845  0.02675963  0.18935689     0.43780
C901        C  0.67844638  0.56465114  0.44704480    -0.05280
C902        C  0.64791563  0.56976805  0.39297195    -0.32710
C903        C  0.66687384  0.54787689  0.33675679     0.36540
C904        C  0.72302295  0.53824103  0.32811383    -0.05640
C905        C  0.75662855  0.55688023  0.37524943    -0.32610
C906        C  0.73575850  0.56028922  0.43479568     0.36450
H907        H  0.60993369  0.59263801  0.39241301     0.16820
O908        O  0.63010404  0.53705216  0.29203695    -0.60100
H909        H  0.80023350  0.56115841  0.36742743     0.16830
O910        O  0.77289121  0.56171228  0.47929322    -0.60200
H911        H  0.76635780  0.52481768  0.50026532     0.43830
H912        H  0.62093186  0.57581428  0.27597685     0.43780
C913        C  0.70437947  0.53689624  0.19258304    -0.05280
C914        C  0.72704535  0.58498519  0.16529534    -0.32710
C915        C  0.72140234  0.59130236  0.10306794     0.36540
C916        C  0.67966476  0.56281393  0.06924247    -0.05640
C917        C  0.65411090  0.51626120  0.10080742    -0.32610
C918        C  0.66203300  0.50738272  0.16299181     0.36450
H919        H  0.76073971  0.60750492  0.18713998     0.16820
O920        O  0.76270133  0.61953838  0.07438698    -0.60100
H921        H  0.62743234  0.48633737  0.07748790     0.16830
O922        O  0.63412173  0.46390355  0.19258632    -0.60200
H923        H  0.59511848  0.47611171  0.19399694     0.43830
H924        H  0.79645322  0.59719954  0.08174422     0.43780
O925        O  0.81623582  0.68728877  0.95012406    -0.72760
O926        O  0.68351051  0.80280592  0.94773929    -0.73740
O927        O  0.80442647  0.81690945  0.94963143    -0.62360
O928        O  0.69423732  0.67621204  0.95419812    -0.70770
O929        O  0.68791104  0.68623728  0.55292418    -0.70320
O930        O  0.80297505  0.82280869  0.54888844    -0.61570
O931        O  0.68115380  0.80767703  0.54694738    -0.74080
O932        O  0.81595776  0.70206090  0.54845467    -0.72860
Cu933      Cu  0.74977237  0.74574640  0.94717498     1.04560
Cu934      Cu  0.74700644  0.75437729  0.55228462     1.04330
C935        C  0.84033447  0.67971650  0.50060629     0.93440
C936        C  0.65826528  0.82030353  0.99697144     0.92580
C937        C  0.81921651  0.84481787  0.49839310     0.84730
C938        C  0.67456160  0.65668262  0.00515420     0.91000
C939        C  0.65371610  0.58955076  0.00944140    -0.02300
C940        C  0.74730587  0.49520560  0.78293594     0.00750
C941        C  0.74466503  0.50006122  0.72240367     0.00750
C942        C  0.83935415  0.91193447  0.99580633    -0.02300
C943        C  0.59451048  0.83598892  0.99713890    -0.02300
C944        C  0.99757385  0.74562378  0.71567836     0.00750
C945        C  0.99946043  0.74972338  0.77780497     0.00750
C946        C  0.90443103  0.66385524  0.00299008    -0.02300
O947        O  0.92630848  0.94048190  0.55218215    -0.72760
O948        O  0.56282543  0.55731656  0.56220634    -0.73740
O949        O  0.94514902  0.57428354  0.55700479    -0.62360
O950        O  0.54757936  0.92387502  0.55620301    -0.70770
O951        O  0.54724992  0.92595728  0.95925846    -0.70320
O952        O  0.94214011  0.56660424  0.95986539    -0.61570
O953        O  0.56604289  0.54700908  0.96515743    -0.74080
O954        O  0.93294516  0.93600213  0.95376131    -0.72860
Cu955      Cu  0.99502899  0.49843833  0.56057428     1.04560
Cu956      Cu  0.99711779  0.49454323  0.95704936     1.04490
C957        C  0.90421170  0.92536512  0.00119611     0.93440
C958        C  0.58896747  0.56866923  0.01225539     0.92580
C959        C  0.92819038  0.59648372  0.00738770     0.84730
C960        C  0.56521648  0.90058967  0.00527386     0.91000
C961        C  0.95608374  0.72565823  0.81914038    -0.05280
C962        C  0.96813604  0.67055554  0.83988943    -0.32710
C963        C  0.96770171  0.66157544  0.90273860     0.36540
C964        C  0.93109304  0.69213392  0.94271936    -0.05640
C965        C  0.91121373  0.74431396  0.91770618    -0.32610
C966        C  0.92588667  0.76286882  0.85873527     0.36450
H967        H  0.49393426  0.64260216  0.81091639     0.16820
O968        O  0.01233478  0.63476401  0.92545948    -0.60100
H969        H  0.88536604  0.77167837  0.94454086     0.16830
O970        O  0.91312425  0.81822896  0.84157852    -0.60200
H971        H  0.87623807  0.81479299  0.82386636     0.43830
H972        H  0.51979511  0.60132184  0.89712677     0.43780
C973        C  0.94537940  0.73856122  0.68217683    -0.05280
C974        C  0.93876585  0.77723063  0.63394208    -0.32710
C975        C  0.93067082  0.75516288  0.57475170     0.36540
C976        C  0.91900408  0.69469178  0.56506621    -0.05640
C977        C  0.90401097  0.66466605  0.61912956    -0.32610
C978        C  0.92124540  0.68348493  0.67614652     0.36450
H979        H  0.95248930  0.82211236  0.63906631     0.16820
O980        O  0.93478181  0.79388960  0.52865242    -0.60100
H981        H  0.88156430  0.62419847  0.61687692     0.16830
O982        O  0.92019912  0.64502348  0.72285430    -0.60200
H983        H  0.88305905  0.64892413  0.74199564     0.43830
H984        H  0.97269464  0.79061503  0.51191464     0.43780
C985        C  0.57773968  0.81173547  0.93135792    -0.05280
C986        C  0.58348537  0.75228278  0.91298035    -0.32710
C987        C  0.57379360  0.73363778  0.85256378     0.36540
C988        C  0.54752974  0.77108753  0.81277508    -0.05640
C989        C  0.55067633  0.83029011  0.82663106    -0.32610
C990        C  0.57630495  0.84921593  0.87963942     0.36450
H991        H  0.60115410  0.72128162  0.94242881     0.16820
O992        O  0.58770635  0.67841177  0.83341722    -0.60100
H993        H  0.53380710  0.86213229  0.79681429     0.16830
O994        O  0.60675033  0.90000864  0.87740584    -0.60200
H995        H  0.58647453  0.92856998  0.85325753     0.43830
H996        H  0.62525834  0.68218146  0.81541860     0.43780
C997        C  0.57471208  0.80384132  0.55695670    -0.05280
C998        C  0.55989897  0.74434062  0.56156161    -0.32710
C999        C  0.54984349  0.71907808  0.61934394     0.36540
C1000       C  0.54549978  0.75487339  0.67254706    -0.05640
C1001       C  0.56770708  0.81017162  0.66927710    -0.32610
C1002       C  0.58638621  0.83173051  0.61391295     0.36450
H1003       H  0.55429295  0.71686390  0.52220031     0.16820
O1004       O  0.03883356  0.66056635  0.62390353    -0.60100
H1005       H  0.57024650  0.83815005  0.70883093     0.16830
O1006       O  0.61992311  0.87919729  0.61609522    -0.60200
H1007       H  0.65201723  0.86472301  0.63719450     0.43830
H1008       H  0.01503750  0.64990132  0.58975764     0.43780
C1009       C  0.81678721  0.93367013  0.93193850    -0.05280
C1010       C  0.76447801  0.91416943  0.91256983    -0.32710
C1011       C  0.74947275  0.91494226  0.85173265     0.36540
C1012       C  0.77922015  0.94824184  0.81057038    -0.05640
C1013       C  0.83257965  0.96241731  0.82441449    -0.32610
C1014       C  0.84861527  0.96229461  0.88531658     0.36450
H1015       H  0.73655664  0.89278511  0.94289664     0.16820
O1016       O  0.70208867  0.88868823  0.83376179    -0.60100
H1017       H  0.85518771  0.49015614  0.79314980     0.16830
O1018       O  0.88302948  0.00672005  0.90025780    -0.60200
H1019       H  0.91521543  0.50410810  0.87151274     0.43830
H1020       H  0.71268067  0.84829551  0.82158421     0.43780
C1021       C  0.81087102  0.94477048  0.55289355    -0.05280
C1022       C  0.83656884  0.98945596  0.58743225    -0.32710
C1023       C  0.82431180  0.99911726  0.64977792     0.36540
C1024       C  0.78140000  0.96806819  0.67813008    -0.05640
C1025       C  0.75564116  0.92511626  0.64415697    -0.32610
C1026       C  0.76264457  0.92366801  0.58097408     0.36450
H1027       H  0.86586356  0.01740212  0.56572738     0.16820
O1028       O  0.85068987  0.04264185  0.68122953    -0.60100
H1029       H  0.72199653  0.90302095  0.66572074     0.16830
O1030       O  0.71985189  0.90705812  0.54669574    -0.60200
H1031       H  0.70695540  0.94294087  0.52739543     0.43830
H1032       H  0.88747081  0.02675654  0.68935566     0.43780
C1033       C  0.67844757  0.56465286  0.94704516    -0.05280
C1034       C  0.64791669  0.56976835  0.89297219    -0.32710
C1035       C  0.66687529  0.54787752  0.83675704     0.36540
C1036       C  0.72302447  0.53824254  0.82811396    -0.05640
C1037       C  0.75662990  0.55688231  0.87524957    -0.32610
C1038       C  0.73575983  0.56029277  0.93479591     0.36450
H1039       H  0.60993462  0.59263798  0.89241273     0.16820
O1040       O  0.63010574  0.53705294  0.79203693    -0.60100
H1041       H  0.80023477  0.56116135  0.86742732     0.16830
O1042       O  0.77289264  0.56172197  0.97929334    -0.60200
H1043       H  0.76636508  0.52482616  0.00026513     0.43830
H1044       H  0.62093397  0.57581509  0.77597663     0.43780
C1045       C  0.70438124  0.53689644  0.69258235    -0.05280
C1046       C  0.72704764  0.58498421  0.66529277    -0.32710
C1047       C  0.72140357  0.59129991  0.60306534     0.36540
C1048       C  0.67966431  0.56281228  0.56924199    -0.05640
C1049       C  0.65411029  0.51626064  0.60080844    -0.32610
C1050       C  0.66203398  0.50738262  0.66299259     0.36450
H1051       H  0.76074284  0.60750379  0.68713597     0.16820
O1052       O  0.76270215  0.61953468  0.57438222    -0.60100
H1053       H  0.62743108  0.48633666  0.57749010     0.16830
O1054       O  0.63412377  0.46390318  0.69258793    -0.60200
H1055       H  0.59512032  0.47611062  0.69399909     0.43830
H1056       H  0.79645429  0.59719659  0.58174037     0.43780
loop_ 
_geom_bond_atom_site_label_1 
_geom_bond_atom_site_label_2 
_geom_bond_distance 
_geom_bond_site_symmetry_2 
_ccdc_geom_bond_type 
O1           Cu9   2.111       .  S
O1          C143   1.286       .  A
O2           Cu9   2.083       .  S
O2           C12   1.288       .  A
O3           Cu9   2.101       .  S
O3          C145   1.295       .  A
O4           Cu9   2.091       .  S
O4           C14   1.295       .  A
O5          Cu10   2.119       .  S
O5          C146   1.286       .  A
O6          Cu10   2.074       .  S
O6           C13   1.282   1_554  A
O7          Cu10   2.030       .  S
O7          C144   1.285   1_554  A
O8          Cu10   2.068       .  S
O8           C11   1.292       .  A
Cu9        Cu142   2.315       .  S
Cu10       Cu141   2.315   1_554  S
C11         O133   1.286   1_554  A
C11         C154   1.609       .  S
C12         O139   1.285       .  A
C12          C19   1.597       .  S
C13         O135   1.295       .  A
C13         C150   1.614       .  S
C14         O137   1.286       .  A
C14          C15   1.621       .  S
C15          C34   1.647       .  S
C15         C109   1.580       .  S
C15         C256   1.609       .  S
C16          C17   1.342   1_565  D
C16         C112   1.497   1_565  S
C16         C352   1.482       .  S
C17         C121   1.475       .  S
C17         C364   1.489   1_545  S
C18          C33   1.616       .  S
C18          C85   1.612       .  S
C18         C145   1.614       .  S
C18         C229   1.594       .  S
C19          C36   1.651       .  S
C19          C61   1.601       .  S
C19         C205   1.584       .  S
C20          C21   1.370       .  D
C20          C49   1.494       .  S
C20         C604   1.502       .  S
C21          C37   1.487       .  S
C21         C592   1.494       .  S
C22          C35   1.657       .  S
C22          C40   1.608       .  S
C22         C143   1.609       .  S
C22         C184   1.572       .  S
O23        Cu295   2.142       .  S
O23         C165   1.297       .  A
O24        Cu559   2.129   1_445  S
O24         C166   1.286       .  A
O25         Cu31   2.130   1_545  S
O25         C167   1.293       .  A
O26        Cu823   2.140   1_455  S
O26         C168   1.294       .  A
O27        Cu824   1.998   1_455  S
O27          C36   1.267       .  A
O28         Cu32   2.131   1_545  S
O28          C35   1.276       .  A
O29        Cu560   2.070   1_445  S
O29          C34   1.280       .  A
O30        Cu296   2.057       .  S
O30          C33   1.268       .  A
Cu31        O287   2.142       .  S
Cu31        O552   2.129   1_565  S
Cu31        O818   2.140       .  S
Cu31       Cu164   2.276   1_554  S
Cu32        O819   1.998       .  S
Cu32        O557   2.070   1_565  S
Cu32        O294   2.057       .  S
Cu32       Cu163   2.276       .  S
C33         O155   1.297       .  A
C34         O156   1.286       .  A
C35         O157   1.293       .  A
C36         O158   1.294       .  A
C37          C38   1.387       .  A
C37          C42   1.402       .  A
C38          C39   1.402       .  A
C38         H571   1.085       .  S
C39          C40   1.413       .  A
C39          O44   1.364       .  S
C40          C41   1.420       .  A
C41          C42   1.410       .  A
C41          H45   1.052       .  S
C42          O46   1.371       .  S
H43         C566   1.085       .  S
O44         H576   0.992       .  S
O46          H47   0.992       .  S
H48         O572   0.992       .  S
C49          C50   1.410       .  A
C49          C54   1.395       .  A
C50          C51   1.405       .  A
C50          H55   1.084       .  S
C51          C52   1.426       .  A
C51          O56   1.363       .  S
C52         C154   1.572       .  S
C52          C53   1.425       .  A
C53          C54   1.392       .  A
C53          H57   1.075       .  S
C54          O58   1.368       .  S
O56          H60   0.988       .  S
O58          H59   0.992       .  S
C61          C62   1.419       .  A
C61          C66   1.441       .  A
C62          C63   1.413       .  A
C62          H67   1.071       .  S
C63          C64   1.407       .  A
C63          O68   1.366       .  S
C64         C549   1.494   1_455  S
C64          C65   1.386       .  A
C65          C66   1.397       .  A
C65          H69   1.082       .  S
C66          O70   1.378       .  S
O68          H72   0.992       .  S
O70          H71   0.994       .  S
C73         C151   1.584   1_554  S
C73          C74   1.414       .  A
C73          C78   1.429       .  A
C74          C75   1.423       .  A
C74          H79   1.071       .  S
C75          C76   1.416       .  A
C75         O608   1.371       .  S
C76         C548   1.502   1_455  S
C76          C77   1.378       .  A
C77          C78   1.388       .  A
C77          H81   1.072       .  S
C78          O82   1.358       .  S
O80         C603   1.371       .  S
O80          H84   0.987       .  S
O82          H83   0.983       .  S
C85          C86   1.422       .  A
C85          C90   1.437       .  A
C86          C87   1.397       .  A
C86          H91   1.065       .  S
C87          C88   1.384       .  A
C87          O92   1.364       .  S
C88         C280   1.482       .  S
C88          C89   1.379       .  A
C89          C90   1.406       .  A
C89         H357   1.084       .  S
C90          O94   1.356       .  S
O92          H96   0.991       .  S
H93         C353   1.084       .  S
O94         H359   0.995       .  S
H95         O358   0.995       .  S
C97         C150   1.594   1_554  S
C97          C98   1.415       .  A
C97         C102   1.402       .  A
C98          C99   1.408       .  A
C98         H103   1.067       .  S
C99         C100   1.402       .  A
C99         O104   1.369       .  S
C100        C281   1.489       .  S
C100        C101   1.381       .  A
C101        C102   1.395       .  A
C101        H105   1.067       .  S
C102        O106   1.352       .  S
O104        H108   0.992       .  S
O106        H107   0.990       .  S
C109        C110   1.427       .  A
C109        C114   1.419       .  A
C110        C111   1.392       .  A
C110        H115   1.067       .  S
C111        C112   1.395       .  A
C111        O116   1.366       .  S
C112        C113   1.397       .  A
C113        C114   1.393       .  A
C113        H117   1.077       .  S
C114        O118   1.351       .  S
O116        H120   0.992       .  S
O118        H119   0.982       .  S
C121        C122   1.373       .  A
C121        C126   1.399       .  A
C122        C123   1.390       .  A
C122        H127   1.085       .  S
C123        C124   1.424       .  A
C123        O128   1.344       .  S
C124        C147   1.609       .  S
C124        C125   1.418       .  A
C125        C126   1.406       .  A
C125        H129   1.074   1_545  S
C126        O130   1.370   1_545  S
O128        H132   0.990       .  S
O130        H131   0.992       .  S
O133       Cu141   2.111       .  S
O134       Cu141   2.083       .  S
O134        C144   1.288       .  A
O135       Cu141   2.101       .  S
O136       Cu141   2.091       .  S
O136        C146   1.295   1_556  A
O137       Cu142   2.119       .  S
O138       Cu142   2.074       .  S
O138        C145   1.282       .  A
O139       Cu142   2.030       .  S
O140       Cu142   2.068       .  S
O140        C143   1.292       .  A
C144        C151   1.597       .  S
C146        C147   1.621       .  S
C147        C166   1.647       .  S
C147        C241   1.580   1_554  S
C148        C149   1.342   1_565  D
C148        C484   1.482       .  S
C148        C244   1.497   1_565  S
C149        C496   1.489   1_545  S
C149        C253   1.475       .  S
C150        C165   1.616   1_556  S
C150        C217   1.612       .  S
C151        C168   1.651   1_556  S
C151        C193   1.601       .  S
C152        C153   1.370       .  D
C152        C181   1.494       .  S
C152        C736   1.502       .  S
C153        C169   1.487       .  S
C153        C724   1.494       .  S
C154        C167   1.657       .  S
C154        C172   1.608   1_554  S
O155       Cu427   2.142       .  S
O156       Cu691   2.129   1_445  S
O157       Cu163   2.130   1_545  S
O158       Cu955   2.140   1_455  S
O159       Cu956   1.998   1_455  S
O159        C168   1.267   1_556  A
O160       Cu164   2.131   1_545  S
O160        C167   1.276   1_556  A
O161       Cu692   2.070   1_445  S
O161        C166   1.280   1_556  A
O162       Cu428   2.057       .  S
O162        C165   1.268   1_556  A
Cu163       O419   2.142       .  S
Cu163       O684   2.129   1_565  S
Cu163       O950   2.140       .  S
Cu164       O951   1.998       .  S
Cu164       O689   2.070   1_565  S
Cu164       O426   2.057       .  S
C169        C170   1.387       .  A
C169        C174   1.402       .  A
C170        C171   1.402       .  A
C170        H703   1.085       .  S
C171        C172   1.413       .  A
C171        O176   1.364       .  S
C172        C173   1.420       .  A
C173        C174   1.410       .  A
C173        H177   1.052       .  S
C174        O178   1.371       .  S
H175        C698   1.085       .  S
O176        H708   0.992       .  S
O178        H179   0.992       .  S
H180        O704   0.992       .  S
C181        C182   1.410       .  A
C181        C186   1.395       .  A
C182        C183   1.405       .  A
C182        H187   1.084       .  S
C183        C184   1.426       .  A
C183        O188   1.363       .  S
C184        C185   1.425       .  A
C185        C186   1.392       .  A
C185        H189   1.075       .  S
C186        O190   1.368       .  S
O188        H192   0.988       .  S
O190        H191   0.992       .  S
C193        C194   1.419       .  A
C193        C198   1.441       .  A
C194        C195   1.413       .  A
C194        H199   1.071       .  S
C195        C196   1.407       .  A
C195        O200   1.366       .  S
C196        C681   1.494   1_455  S
C196        C197   1.386       .  A
C197        C198   1.397       .  A
C197        H201   1.082       .  S
C198        O202   1.378       .  S
O200        H204   0.992       .  S
O202        H203   0.994       .  S
C205        C206   1.414       .  A
C205        C210   1.429       .  A
C206        C207   1.423       .  A
C206        H211   1.071       .  S
C207        C208   1.416       .  A
C207        O740   1.371       .  S
C208        C680   1.502   1_455  S
C208        C209   1.378       .  A
C209        C210   1.388       .  A
C209        H213   1.072       .  S
C210        O214   1.358       .  S
O212        C735   1.371       .  S
O212        H216   0.987       .  S
O214        H215   0.983       .  S
C217        C218   1.422       .  A
C217        C222   1.437       .  A
C218        C219   1.397       .  A
C218        H223   1.065       .  S
C219        C220   1.384       .  A
C219        O224   1.364       .  S
C220        C412   1.482       .  S
C220        C221   1.379       .  A
C221        C222   1.406       .  A
C221        H489   1.084       .  S
C222        O226   1.356       .  S
O224        H228   0.991       .  S
H225        C485   1.084       .  S
O226        H491   0.995       .  S
H227        O490   0.995       .  S
C229        C230   1.415       .  A
C229        C234   1.402       .  A
C230        C231   1.408       .  A
C230        H235   1.067       .  S
C231        C232   1.402       .  A
C231        O236   1.369       .  S
C232        C413   1.489       .  S
C232        C233   1.381       .  A
C233        C234   1.395       .  A
C233        H237   1.067       .  S
C234        O238   1.352       .  S
O236        H240   0.992       .  S
O238        H239   0.990       .  S
C241        C242   1.427       .  A
C241        C246   1.419       .  A
C242        C243   1.392       .  A
C242        H247   1.067       .  S
C243        C244   1.395       .  A
C243        O248   1.366       .  S
C244        C245   1.397       .  A
C245        C246   1.393       .  A
C245        H249   1.077       .  S
C246        O250   1.351       .  S
O248        H252   0.992       .  S
O250        H251   0.982   1_556  S
C253        C254   1.373       .  A
C253        C258   1.399       .  A
C254        C255   1.390       .  A
C254        H259   1.085       .  S
C255        C256   1.424       .  A
C255        O260   1.344       .  S
C256        C257   1.418       .  A
C257        C258   1.406       .  A
C257        H261   1.074   1_545  S
C258        O262   1.370   1_545  S
O260        H264   0.990       .  S
O262        H263   0.992       .  S
O265       Cu273   2.111       .  S
O265        C407   1.286       .  A
O266       Cu273   2.083       .  S
O266        C276   1.288       .  A
O267       Cu273   2.101       .  S
O267        C409   1.295       .  A
O268       Cu273   2.091       .  S
O268        C278   1.295       .  A
O269       Cu274   2.119       .  S
O269        C410   1.286       .  A
O270       Cu274   2.074       .  S
O270        C277   1.282   1_554  A
O271       Cu274   2.030       .  S
O271        C408   1.285   1_554  A
O272       Cu274   2.068       .  S
O272        C275   1.292       .  A
Cu273      Cu406   2.315       .  S
Cu274      Cu405   2.315   1_554  S
C275        O397   1.286   1_554  A
C275        C418   1.609       .  S
C276        O403   1.285       .  A
C276        C283   1.597       .  S
C277        O399   1.295       .  A
C277        C414   1.614       .  S
C278        O401   1.286       .  A
C278        C279   1.621       .  S
C279        C298   1.647       .  S
C279        C373   1.580       .  S
C279        C520   1.609       .  S
C280        C281   1.342       .  D
C280        C376   1.497       .  S
C281        C385   1.475       .  S
C282        C409   1.614       .  S
C282        C297   1.616       .  S
C282        C349   1.612       .  S
C282        C493   1.594       .  S
C283        C300   1.651       .  S
C283        C325   1.601       .  S
C283        C469   1.584       .  S
C284        C285   1.370       .  D
C284        C313   1.494       .  S
C284        C868   1.502       .  S
C285        C301   1.487       .  S
C285        C856   1.494       .  S
C286        C407   1.609       .  S
C286        C299   1.657       .  S
C286        C304   1.608       .  S
C286        C448   1.572       .  S
O287        C429   1.297       .  A
O288       Cu823   2.128   1_455  S
O288        C430   1.286       .  A
O289       Cu295   2.130       .  S
O289        C431   1.293       .  A
O290       Cu559   2.140   1_455  S
O290        C432   1.294       .  A
O291       Cu560   1.998   1_455  S
O291        C300   1.267       .  A
O292       Cu296   2.131       .  S
O292        C299   1.276       .  A
O293       Cu824   2.070   1_455  S
O293        C298   1.280       .  A
O294        C297   1.268       .  A
Cu295       O816   2.128       .  S
Cu295       O554   2.140       .  S
Cu295      Cu428   2.276   1_554  S
Cu296       O555   1.998       .  S
Cu296       O821   2.070       .  S
Cu296      Cu427   2.276       .  S
C297        O419   1.297       .  A
C298        O420   1.286       .  A
C299        O421   1.293       .  A
C300        O422   1.294       .  A
C301        C302   1.387       .  A
C301        C306   1.402       .  A
C302        C303   1.402       .  A
C302        H835   1.085       .  S
C303        C304   1.413       .  A
C303        O308   1.364       .  S
C304        C305   1.420       .  A
C305        C306   1.410       .  A
C305        H309   1.052       .  S
C306        O310   1.371       .  S
H307        C830   1.085       .  S
O308        H840   0.992       .  S
O310        H311   0.992       .  S
H312        O836   0.992       .  S
C313        C314   1.410       .  A
C313        C318   1.395       .  A
C314        C315   1.405       .  A
C314        H319   1.084       .  S
C315        C316   1.426       .  A
C315        O320   1.363       .  S
C316        C418   1.572       .  S
C316        C317   1.425       .  A
C317        C318   1.392       .  A
C317        H321   1.075       .  S
C318        O322   1.368       .  S
O320        H324   0.988       .  S
O322        H323   0.992       .  S
C325        C326   1.419       .  A
C325        C330   1.441       .  A
C326        C327   1.413       .  A
C326        H331   1.071       .  S
C327        C328   1.407       .  A
C327        O332   1.366       .  S
C328        C813   1.494   1_455  S
C328        C329   1.386       .  A
C329        C330   1.397       .  A
C329        H333   1.082       .  S
C330        O334   1.378       .  S
O332        H336   0.992       .  S
O334        H335   0.994       .  S
C337        C415   1.584   1_554  S
C337        C338   1.414       .  A
C337        C342   1.429       .  A
C338        C339   1.423       .  A
C338        H343   1.071       .  S
C339        C340   1.416       .  A
C339        O872   1.371       .  S
C340        C812   1.502   1_455  S
C340        C341   1.378       .  A
C341        C342   1.388       .  A
C341        H345   1.072       .  S
C342        O346   1.358       .  S
O344        C867   1.371       .  S
O344        H348   0.987       .  S
O346        H347   0.983       .  S
C349        C350   1.422       .  A
C349        C354   1.437       .  A
C350        C351   1.397       .  A
C350        H355   1.065       .  S
C351        C352   1.384       .  A
C351        O356   1.364       .  S
C352        C353   1.379       .  A
C353        C354   1.406       .  A
C354        O358   1.356   1_565  S
O356        H360   0.991       .  S
C361        C414   1.594   1_554  S
C361        C362   1.415       .  A
C361        C366   1.402       .  A
C362        C363   1.408       .  A
C362        H367   1.067   1_565  S
C363        C364   1.402       .  A
C363        O368   1.369   1_565  S
C364        C365   1.381       .  A
C365        C366   1.395       .  A
C365        H369   1.067       .  S
C366        O370   1.352       .  S
O368        H372   0.992       .  S
O370        H371   0.990       .  S
C373        C374   1.427       .  A
C373        C378   1.419       .  A
C374        C375   1.392       .  A
C374        H379   1.067       .  S
C375        C376   1.395       .  A
C375        O380   1.366       .  S
C376        C377   1.397       .  A
C377        C378   1.393       .  A
C377        H381   1.077       .  S
C378        O382   1.351       .  S
O380        H384   0.992       .  S
O382        H383   0.982       .  S
C385        C386   1.373       .  A
C385        C390   1.399       .  A
C386        C387   1.390       .  A
C386        H391   1.085       .  S
C387        C388   1.424       .  A
C387        O392   1.344       .  S
C388        C411   1.609       .  S
C388        C389   1.418       .  A
C389        C390   1.406       .  A
C389        H393   1.074       .  S
C390        O394   1.370       .  S
O392        H396   0.990       .  S
O394        H395   0.992       .  S
O397       Cu405   2.111       .  S
O398       Cu405   2.083       .  S
O398        C408   1.288       .  A
O399       Cu405   2.101       .  S
O400       Cu405   2.091       .  S
O400        C410   1.295   1_556  A
O401       Cu406   2.119       .  S
O402       Cu406   2.074       .  S
O402        C409   1.282       .  A
O403       Cu406   2.030       .  S
O404       Cu406   2.068       .  S
O404        C407   1.292       .  A
C408        C415   1.597       .  S
C410        C411   1.621       .  S
C411        C430   1.647       .  S
C411        C505   1.580   1_554  S
C412        C413   1.342       .  D
C412        C508   1.497       .  S
C413        C517   1.475       .  S
C414        C429   1.616   1_556  S
C414        C481   1.612       .  S
C415        C432   1.651   1_556  S
C415        C457   1.601       .  S
C416        C417   1.370       .  D
C416        C445   1.494       .  S
C416       C1000   1.502       .  S
C417        C433   1.487       .  S
C417        C988   1.494       .  S
C418        C431   1.657       .  S
C418        C436   1.608   1_554  S
O420       Cu955   2.128   1_455  S
O421       Cu427   2.130       .  S
O422       Cu691   2.140   1_455  S
O423       Cu692   1.998   1_455  S
O423        C432   1.267   1_556  A
O424       Cu428   2.131       .  S
O424        C431   1.276   1_556  A
O425       Cu956   2.070   1_455  S
O425        C430   1.280   1_556  A
O426        C429   1.268   1_556  A
Cu427       O948   2.128       .  S
Cu427       O686   2.140       .  S
Cu428       O687   1.998       .  S
Cu428       O953   2.070       .  S
C433        C434   1.387       .  A
C433        C438   1.402       .  A
C434        C435   1.402       .  A
C434        H967   1.085       .  S
C435        C436   1.413       .  A
C435        O440   1.364       .  S
C436        C437   1.420       .  A
C437        C438   1.410       .  A
C437        H441   1.052       .  S
C438        O442   1.371       .  S
H439        C962   1.085       .  S
O440        H972   0.992       .  S
O442        H443   0.992       .  S
H444        O968   0.992       .  S
C445        C446   1.410       .  A
C445        C450   1.395       .  A
C446        C447   1.405       .  A
C446        H451   1.084       .  S
C447        C448   1.426       .  A
C447        O452   1.363       .  S
C448        C449   1.425       .  A
C449        C450   1.392       .  A
C449        H453   1.075       .  S
C450        O454   1.368       .  S
O452        H456   0.988       .  S
O454        H455   0.992       .  S
C457        C458   1.419       .  A
C457        C462   1.441       .  A
C458        C459   1.413       .  A
C458        H463   1.071       .  S
C459        C460   1.407       .  A
C459        O464   1.366       .  S
C460        C945   1.494   1_455  S
C460        C461   1.386       .  A
C461        C462   1.397       .  A
C461        H465   1.082       .  S
C462        O466   1.378       .  S
O464        H468   0.992       .  S
O466        H467   0.994       .  S
C469        C470   1.414       .  A
C469        C474   1.429       .  A
C470        C471   1.423       .  A
C470        H475   1.071       .  S
C471        C472   1.416       .  A
C471       O1004   1.371       .  S
C472        C944   1.502   1_455  S
C472        C473   1.378       .  A
C473        C474   1.388       .  A
C473        H477   1.072       .  S
C474        O478   1.358       .  S
O476        C999   1.371       .  S
O476        H480   0.987       .  S
O478        H479   0.983       .  S
C481        C482   1.422       .  A
C481        C486   1.437       .  A
C482        C483   1.397       .  A
C482        H487   1.065       .  S
C483        C484   1.384       .  A
C483        O488   1.364       .  S
C484        C485   1.379       .  A
C485        C486   1.406       .  A
C486        O490   1.356   1_565  S
O488        H492   0.991       .  S
C493        C494   1.415       .  A
C493        C498   1.402       .  A
C494        C495   1.408       .  A
C494        H499   1.067   1_565  S
C495        C496   1.402       .  A
C495        O500   1.369   1_565  S
C496        C497   1.381       .  A
C497        C498   1.395       .  A
C497        H501   1.067       .  S
C498        O502   1.352       .  S
O500        H504   0.992       .  S
O502        H503   0.990       .  S
C505        C506   1.427       .  A
C505        C510   1.419       .  A
C506        C507   1.392       .  A
C506        H511   1.067       .  S
C507        C508   1.395       .  A
C507        O512   1.366       .  S
C508        C509   1.397       .  A
C509        C510   1.393       .  A
C509        H513   1.077       .  S
C510        O514   1.351       .  S
O512        H516   0.992       .  S
O514        H515   0.982   1_556  S
C517        C518   1.373       .  A
C517        C522   1.399       .  A
C518        C519   1.390       .  A
C518        H523   1.085       .  S
C519        C520   1.424       .  A
C519        O524   1.344       .  S
C520        C521   1.418       .  A
C521        C522   1.406       .  A
C521        H525   1.074       .  S
C522        O526   1.370       .  S
O524        H528   0.990       .  S
O526        H527   0.992       .  S
O529       Cu537   2.111       .  S
O529        C671   1.286       .  A
O530       Cu537   2.083       .  S
O530        C540   1.288       .  A
O531       Cu537   2.101       .  S
O531        C673   1.295       .  A
O532       Cu537   2.091       .  S
O532        C542   1.295       .  A
O533       Cu538   2.119       .  S
O533        C674   1.286       .  A
O534       Cu538   2.074       .  S
O534        C541   1.282   1_554  A
O535       Cu538   2.030       .  S
O535        C672   1.285   1_554  A
O536       Cu538   2.068       .  S
O536        C539   1.292       .  A
Cu537      Cu670   2.315       .  S
Cu538      Cu669   2.315   1_554  S
C539        O661   1.286   1_554  A
C539        C682   1.609       .  S
C540        O667   1.285       .  A
C540        C547   1.597       .  S
C541        O663   1.295       .  A
C541        C678   1.614       .  S
C542        O665   1.286       .  A
C542        C543   1.621       .  S
C543        C562   1.647       .  S
C543        C637   1.580       .  S
C543        C784   1.609       .  S
C544        C545   1.342   1_565  D
C544        C880   1.482       .  S
C544        C640   1.497   1_565  S
C545        C892   1.489   1_545  S
C545        C649   1.475       .  S
C546        C673   1.614       .  S
C546        C561   1.616       .  S
C546        C613   1.612       .  S
C546        C757   1.594       .  S
C547        C564   1.651       .  S
C547        C589   1.601       .  S
C547        C733   1.584       .  S
C548        C549   1.370       .  D
C548        C577   1.494       .  S
C549        C565   1.487       .  S
C550        C671   1.609       .  S
C550        C563   1.657       .  S
C550        C568   1.608       .  S
C550        C712   1.572       .  S
O551       Cu823   2.142       .  S
O551        C693   1.297       .  A
O552        C694   1.286       .  A
O553       Cu559   2.130   1_545  S
O553        C695   1.293       .  A
O554        C696   1.294       .  A
O555        C564   1.267       .  A
O556       Cu560   2.131   1_545  S
O556        C563   1.276       .  A
O557        C562   1.280       .  A
O558       Cu824   2.057       .  S
O558        C561   1.268       .  A
Cu559       O815   2.142       .  S
Cu559      Cu692   2.276   1_554  S
Cu560       O822   2.057       .  S
Cu560      Cu691   2.276       .  S
C561        O683   1.297       .  A
C562        O684   1.286       .  A
C563        O685   1.293       .  A
C564        O686   1.294       .  A
C565        C566   1.387       .  A
C565        C570   1.402       .  A
C566        C567   1.402       .  A
C567        C568   1.413       .  A
C567        O572   1.364   1_655  S
C568        C569   1.420       .  A
C569        C570   1.410       .  A
C569        H573   1.052       .  S
C570        O574   1.371       .  S
O574        H575   0.992       .  S
C577        C578   1.410       .  A
C577        C582   1.395       .  A
C578        C579   1.405       .  A
C578        H583   1.084       .  S
C579        C580   1.426       .  A
C579        O584   1.363       .  S
C580        C682   1.572       .  S
C580        C581   1.425       .  A
C581        C582   1.392       .  A
C581        H585   1.075       .  S
C582        O586   1.368       .  S
O584        H588   0.988       .  S
O586        H587   0.992       .  S
C589        C590   1.419       .  A
C589        C594   1.441       .  A
C590        C591   1.413       .  A
C590        H595   1.071       .  S
C591        C592   1.407       .  A
C591        O596   1.366       .  S
C592        C593   1.386       .  A
C593        C594   1.397       .  A
C593        H597   1.082       .  S
C594        O598   1.378       .  S
O596        H600   0.992       .  S
O598        H599   0.994       .  S
C601        C679   1.584   1_554  S
C601        C602   1.414       .  A
C601        C606   1.429       .  A
C602        C603   1.423       .  A
C602        H607   1.071       .  S
C603        C604   1.416       .  A
C604        C605   1.378       .  A
C605        C606   1.388       .  A
C605        H609   1.072       .  S
C606        O610   1.358       .  S
O608        H612   0.987       .  S
O610        H611   0.983       .  S
C613        C614   1.422       .  A
C613        C618   1.437       .  A
C614        C615   1.397       .  A
C614        H619   1.065       .  S
C615        C616   1.384       .  A
C615        O620   1.364       .  S
C616        C808   1.482       .  S
C616        C617   1.379       .  A
C617        C618   1.406       .  A
C617        H885   1.084       .  S
C618        O622   1.356       .  S
O620        H624   0.991       .  S
H621        C881   1.084       .  S
O622        H887   0.995       .  S
H623        O886   0.995       .  S
C625        C678   1.594   1_554  S
C625        C626   1.415       .  A
C625        C630   1.402       .  A
C626        C627   1.408       .  A
C626        H631   1.067       .  S
C627        C628   1.402       .  A
C627        O632   1.369       .  S
C628        C809   1.489       .  S
C628        C629   1.381       .  A
C629        C630   1.395       .  A
C629        H633   1.067       .  S
C630        O634   1.352       .  S
O632        H636   0.992       .  S
O634        H635   0.990       .  S
C637        C638   1.427       .  A
C637        C642   1.419       .  A
C638        C639   1.392       .  A
C638        H643   1.067       .  S
C639        C640   1.395       .  A
C639        O644   1.366       .  S
C640        C641   1.397       .  A
C641        C642   1.393       .  A
C641        H645   1.077       .  S
C642        O646   1.351       .  S
O644        H648   0.992       .  S
O646        H647   0.982       .  S
C649        C650   1.373       .  A
C649        C654   1.399       .  A
C650        C651   1.390       .  A
C650        H655   1.085       .  S
C651        C652   1.424       .  A
C651        O656   1.344       .  S
C652        C675   1.609       .  S
C652        C653   1.418       .  A
C653        C654   1.406       .  A
C653        H657   1.074   1_545  S
C654        O658   1.370   1_545  S
O656        H660   0.990       .  S
O658        H659   0.992       .  S
O661       Cu669   2.111       .  S
O662       Cu669   2.083       .  S
O662        C672   1.288       .  A
O663       Cu669   2.101       .  S
O664       Cu669   2.091       .  S
O664        C674   1.295   1_556  A
O665       Cu670   2.119       .  S
O666       Cu670   2.074       .  S
O666        C673   1.282       .  A
O667       Cu670   2.030       .  S
O668       Cu670   2.068       .  S
O668        C671   1.292       .  A
C672        C679   1.597       .  S
C674        C675   1.621       .  S
C675        C694   1.647       .  S
C675        C769   1.580   1_554  S
C676        C677   1.342   1_565  D
C676       C1012   1.482       .  S
C676        C772   1.497   1_565  S
C677       C1024   1.489   1_545  S
C677        C781   1.475       .  S
C678        C693   1.616   1_556  S
C678        C745   1.612       .  S
C679        C696   1.651   1_556  S
C679        C721   1.601       .  S
C680        C681   1.370       .  D
C680        C709   1.494       .  S
C681        C697   1.487       .  S
C682        C695   1.657       .  S
C682        C700   1.608   1_554  S
O683       Cu955   2.142       .  S
O685       Cu691   2.130   1_545  S
O687        C696   1.267   1_556  A
O688       Cu692   2.131   1_545  S
O688        C695   1.276   1_556  A
O689        C694   1.280   1_556  A
O690       Cu956   2.057       .  S
O690        C693   1.268   1_556  A
Cu691       O947   2.142       .  S
Cu692       O954   2.057       .  S
C697        C698   1.387       .  A
C697        C702   1.402       .  A
C698        C699   1.402       .  A
C699        C700   1.413       .  A
C699        O704   1.364   1_655  S
C700        C701   1.420       .  A
C701        C702   1.410       .  A
C701        H705   1.052       .  S
C702        O706   1.371       .  S
O706        H707   0.992       .  S
C709        C710   1.410       .  A
C709        C714   1.395       .  A
C710        C711   1.405       .  A
C710        H715   1.084       .  S
C711        C712   1.426       .  A
C711        O716   1.363       .  S
C712        C713   1.425       .  A
C713        C714   1.392       .  A
C713        H717   1.075       .  S
C714        O718   1.368       .  S
O716        H720   0.988       .  S
O718        H719   0.992       .  S
C721        C722   1.419       .  A
C721        C726   1.441       .  A
C722        C723   1.413       .  A
C722        H727   1.071       .  S
C723        C724   1.407       .  A
C723        O728   1.366       .  S
C724        C725   1.386       .  A
C725        C726   1.397       .  A
C725        H729   1.082       .  S
C726        O730   1.378       .  S
O728        H732   0.992       .  S
O730        H731   0.994       .  S
C733        C734   1.414       .  A
C733        C738   1.429       .  A
C734        C735   1.423       .  A
C734        H739   1.071       .  S
C735        C736   1.416       .  A
C736        C737   1.378       .  A
C737        C738   1.388       .  A
C737        H741   1.072       .  S
C738        O742   1.358       .  S
O740        H744   0.987       .  S
O742        H743   0.983       .  S
C745        C746   1.422       .  A
C745        C750   1.437       .  A
C746        C747   1.397       .  A
C746        H751   1.065       .  S
C747        C748   1.384       .  A
C747        O752   1.364       .  S
C748        C940   1.482       .  S
C748        C749   1.379       .  A
C749        C750   1.406       .  A
C749       H1017   1.084       .  S
C750        O754   1.356       .  S
O752        H756   0.991       .  S
H753       C1013   1.084       .  S
O754       H1019   0.995       .  S
H755       O1018   0.995       .  S
C757        C758   1.415       .  A
C757        C762   1.402       .  A
C758        C759   1.408       .  A
C758        H763   1.067       .  S
C759        C760   1.402       .  A
C759        O764   1.369       .  S
C760        C941   1.489       .  S
C760        C761   1.381       .  A
C761        C762   1.395       .  A
C761        H765   1.067       .  S
C762        O766   1.352       .  S
O764        H768   0.992       .  S
O766        H767   0.990       .  S
C769        C770   1.427       .  A
C769        C774   1.419       .  A
C770        C771   1.392       .  A
C770        H775   1.067       .  S
C771        C772   1.395       .  A
C771        O776   1.366       .  S
C772        C773   1.397       .  A
C773        C774   1.393       .  A
C773        H777   1.077       .  S
C774        O778   1.351       .  S
O776        H780   0.992       .  S
O778        H779   0.982   1_556  S
C781        C782   1.373       .  A
C781        C786   1.399       .  A
C782        C783   1.390       .  A
C782        H787   1.085       .  S
C783        C784   1.424       .  A
C783        O788   1.344       .  S
C784        C785   1.418       .  A
C785        C786   1.406       .  A
C785        H789   1.074   1_545  S
C786        O790   1.370   1_545  S
O788        H792   0.990       .  S
O790        H791   0.992       .  S
O793       Cu801   2.111       .  S
O793        C935   1.286       .  A
O794       Cu801   2.083       .  S
O794        C804   1.288       .  A
O795       Cu801   2.101       .  S
O795        C937   1.295       .  A
O796       Cu801   2.091       .  S
O796        C806   1.295       .  A
O797       Cu802   2.119       .  S
O797        C938   1.286       .  A
O798       Cu802   2.074       .  S
O798        C805   1.282   1_554  A
O799       Cu802   2.030       .  S
O799        C936   1.285   1_554  A
O800       Cu802   2.068       .  S
O800        C803   1.292       .  A
Cu801      Cu934   2.315       .  S
Cu802      Cu933   2.315   1_554  S
C803        O925   1.286   1_554  A
C803        C946   1.609       .  S
C804        O931   1.285       .  A
C804        C811   1.597       .  S
C805        O927   1.295       .  A
C805        C942   1.614       .  S
C806        O929   1.286       .  A
C806        C807   1.621       .  S
C807        C826   1.647       .  S
C807        C901   1.580       .  S
C807       C1048   1.609       .  S
C808        C809   1.342       .  D
C808        C904   1.497       .  S
C809        C913   1.475       .  S
C810        C937   1.614       .  S
C810        C825   1.616       .  S
C810        C877   1.612       .  S
C810       C1021   1.594       .  S
C811        C828   1.651       .  S
C811        C853   1.601       .  S
C811        C997   1.584       .  S
C812        C813   1.370       .  D
C812        C841   1.494       .  S
C813        C829   1.487       .  S
C814        C935   1.609       .  S
C814        C827   1.657       .  S
C814        C832   1.608       .  S
C814        C976   1.572       .  S
O815        C957   1.297       .  A
O816        C958   1.286       .  A
O817       Cu823   2.130       .  S
O817        C959   1.293       .  A
O818        C960   1.294       .  A
O819        C828   1.267       .  A
O820       Cu824   2.131       .  S
O820        C827   1.276       .  A
O821        C826   1.280       .  A
O822        C825   1.268       .  A
Cu823      Cu956   2.276   1_554  S
Cu824      Cu955   2.276       .  S
C825        O947   1.297       .  A
C826        O948   1.286       .  A
C827        O949   1.293       .  A
C828        O950   1.294       .  A
C829        C830   1.387       .  A
C829        C834   1.402       .  A
C830        C831   1.402       .  A
C831        C832   1.413       .  A
C831        O836   1.364   1_655  S
C832        C833   1.420       .  A
C833        C834   1.410       .  A
C833        H837   1.052       .  S
C834        O838   1.371       .  S
O838        H839   0.992       .  S
C841        C842   1.410       .  A
C841        C846   1.395       .  A
C842        C843   1.405       .  A
C842        H847   1.084       .  S
C843        C844   1.426       .  A
C843        O848   1.363       .  S
C844        C946   1.572       .  S
C844        C845   1.425       .  A
C845        C846   1.392       .  A
C845        H849   1.075       .  S
C846        O850   1.368       .  S
O848        H852   0.988       .  S
O850        H851   0.992       .  S
C853        C854   1.419       .  A
C853        C858   1.441       .  A
C854        C855   1.413       .  A
C854        H859   1.071       .  S
C855        C856   1.407       .  A
C855        O860   1.366       .  S
C856        C857   1.386       .  A
C857        C858   1.397       .  A
C857        H861   1.082       .  S
C858        O862   1.378       .  S
O860        H864   0.992       .  S
O862        H863   0.994       .  S
C865        C943   1.584   1_554  S
C865        C866   1.414       .  A
C865        C870   1.429       .  A
C866        C867   1.423       .  A
C866        H871   1.071       .  S
C867        C868   1.416       .  A
C868        C869   1.378       .  A
C869        C870   1.388       .  A
C869        H873   1.072       .  S
C870        O874   1.358       .  S
O872        H876   0.987       .  S
O874        H875   0.983       .  S
C877        C878   1.422       .  A
C877        C882   1.437       .  A
C878        C879   1.397       .  A
C878        H883   1.065       .  S
C879        C880   1.384       .  A
C879        O884   1.364       .  S
C880        C881   1.379       .  A
C881        C882   1.406       .  A
C882        O886   1.356   1_565  S
O884        H888   0.991       .  S
C889        C942   1.594   1_554  S
C889        C890   1.415       .  A
C889        C894   1.402       .  A
C890        C891   1.408       .  A
C890        H895   1.067   1_565  S
C891        C892   1.402       .  A
C891        O896   1.369   1_565  S
C892        C893   1.381       .  A
C893        C894   1.395       .  A
C893        H897   1.067       .  S
C894        O898   1.352       .  S
O896        H900   0.992       .  S
O898        H899   0.990       .  S
C901        C902   1.427       .  A
C901        C906   1.419       .  A
C902        C903   1.392       .  A
C902        H907   1.067       .  S
C903        C904   1.395       .  A
C903        O908   1.366       .  S
C904        C905   1.397       .  A
C905        C906   1.393       .  A
C905        H909   1.077       .  S
C906        O910   1.351       .  S
O908        H912   0.992       .  S
O910        H911   0.982       .  S
C913        C914   1.373       .  A
C913        C918   1.399       .  A
C914        C915   1.390       .  A
C914        H919   1.085       .  S
C915        C916   1.424       .  A
C915        O920   1.344       .  S
C916        C939   1.609       .  S
C916        C917   1.418       .  A
C917        C918   1.406       .  A
C917        H921   1.074       .  S
C918        O922   1.370       .  S
O920        H924   0.990       .  S
O922        H923   0.992       .  S
O925       Cu933   2.111       .  S
O926       Cu933   2.083       .  S
O926        C936   1.288       .  A
O927       Cu933   2.101       .  S
O928       Cu933   2.091       .  S
O928        C938   1.295   1_556  A
O929       Cu934   2.119       .  S
O930       Cu934   2.074       .  S
O930        C937   1.282       .  A
O931       Cu934   2.030       .  S
O932       Cu934   2.068       .  S
O932        C935   1.292       .  A
C936        C943   1.597       .  S
C938        C939   1.621       .  S
C939        C958   1.647       .  S
C939       C1033   1.580   1_554  S
C940        C941   1.342       .  D
C940       C1036   1.497       .  S
C941       C1045   1.475       .  S
C942        C957   1.616   1_556  S
C942       C1009   1.612       .  S
C943        C960   1.651   1_556  S
C943        C985   1.601       .  S
C944        C945   1.370       .  D
C944        C973   1.494       .  S
C945        C961   1.487       .  S
C946        C959   1.657       .  S
C946        C964   1.608   1_554  S
O949       Cu955   2.130       .  S
O951        C960   1.267   1_556  A
O952       Cu956   2.131       .  S
O952        C959   1.276   1_556  A
O953        C958   1.280   1_556  A
O954        C957   1.268   1_556  A
C961        C962   1.387       .  A
C961        C966   1.402       .  A
C962        C963   1.402       .  A
C963        C964   1.413       .  A
C963        O968   1.364   1_655  S
C964        C965   1.420       .  A
C965        C966   1.410       .  A
C965        H969   1.052       .  S
C966        O970   1.371       .  S
O970        H971   0.992       .  S
C973        C974   1.410       .  A
C973        C978   1.395       .  A
C974        C975   1.405       .  A
C974        H979   1.084       .  S
C975        C976   1.426       .  A
C975        O980   1.363       .  S
C976        C977   1.425       .  A
C977        C978   1.392       .  A
C977        H981   1.075       .  S
C978        O982   1.368       .  S
O980        H984   0.988       .  S
O982        H983   0.992       .  S
C985        C986   1.419       .  A
C985        C990   1.441       .  A
C986        C987   1.413       .  A
C986        H991   1.071       .  S
C987        C988   1.407       .  A
C987        O992   1.366       .  S
C988        C989   1.386       .  A
C989        C990   1.397       .  A
C989        H993   1.082       .  S
C990        O994   1.378       .  S
O992        H996   0.992       .  S
O994        H995   0.994       .  S
C997        C998   1.414       .  A
C997       C1002   1.429       .  A
C998        C999   1.423       .  A
C998       H1003   1.071       .  S
C999       C1000   1.416       .  A
C1000      C1001   1.378       .  A
C1001      C1002   1.388       .  A
C1001      H1005   1.072       .  S
C1002      O1006   1.358       .  S
O1004      H1008   0.987       .  S
O1006      H1007   0.983       .  S
C1009      C1010   1.422       .  A
C1009      C1014   1.437       .  A
C1010      C1011   1.397       .  A
C1010      H1015   1.065       .  S
C1011      C1012   1.384       .  A
C1011      O1016   1.364       .  S
C1012      C1013   1.379       .  A
C1013      C1014   1.406       .  A
C1014      O1018   1.356   1_565  S
O1016      H1020   0.991       .  S
C1021      C1022   1.415       .  A
C1021      C1026   1.402       .  A
C1022      C1023   1.408       .  A
C1022      H1027   1.067   1_565  S
C1023      C1024   1.402       .  A
C1023      O1028   1.369   1_565  S
C1024      C1025   1.381       .  A
C1025      C1026   1.395       .  A
C1025      H1029   1.067       .  S
C1026      O1030   1.352       .  S
O1028      H1032   0.992       .  S
O1030      H1031   0.990       .  S
C1033      C1034   1.427       .  A
C1033      C1038   1.419       .  A
C1034      C1035   1.392       .  A
C1034      H1039   1.067       .  S
C1035      C1036   1.395       .  A
C1035      O1040   1.366       .  S
C1036      C1037   1.397       .  A
C1037      C1038   1.393       .  A
C1037      H1041   1.077       .  S
C1038      O1042   1.351       .  S
O1040      H1044   0.992       .  S
O1042      H1043   0.982   1_556  S
C1045      C1046   1.373       .  A
C1045      C1050   1.399       .  A
C1046      C1047   1.390       .  A
C1046      H1051   1.085       .  S
C1047      C1048   1.424       .  A
C1047      O1052   1.344       .  S
C1048      C1049   1.418       .  A
C1049      C1050   1.406       .  A
C1049      H1053   1.074       .  S
C1050      O1054   1.370       .  S
O1052      H1056   0.990       .  S
O1054      H1055   0.992       .  S
