geometry optimzed in LAMMPS
_audit_creation_date              2020-12-01 
_audit_creation_method            'lammps2cif' 
_symmetry_space_group_name_H-M    'P1' 
_symmetry_Int_Tables_number       1 
_symmetry_cell_setting            triclinic 
loop_ 
_symmetry_equiv_pos_as_xyz 
  x,y,z 
_cell_length_a                    38.38971304 
_cell_length_b                    31.491452667770417 
_cell_length_c                    35.21503373332051 
_cell_angle_alpha                 90.68484417034722 
_cell_angle_beta                  129.48889509206825 
_cell_angle_gamma                 91.23775623415504 
loop_ 
_atom_site_label 
_atom_site_type_symbol 
_atom_site_fract_x 
_atom_site_fract_y 
_atom_site_fract_z 
_atom_site_charge 
C1          C  0.07829274  0.80530821  0.21393779     0.85900
C2          C  0.08498678  0.76491253  0.19418643    -0.54400
C3          C  0.09993531  0.77211765  0.16834066     0.08800
C4          C  0.10760338  0.81976254  0.16523952     0.19700
C5          C  0.12463129  0.82913738  0.24423879    -0.55100
C6          C  0.14100225  0.83657380  0.21952154     0.08900
C7          C  0.04682726  0.83179099  0.16808975    -0.54600
C8          C  0.06221060  0.83964267  0.14290891     0.09500
H9          H  0.08022420  0.73298218  0.20115648     0.14000
H10         H  0.11782282  0.82610861  0.14273243    -0.00300
H11         H  0.14352043  0.83658658  0.28302528     0.14300
H12         H  0.01556931  0.84422431  0.15724331     0.14100
C13         C  0.19601849  0.50630766  0.08935333     0.85900
C14         C  0.15305171  0.47746141  0.06284371    -0.54400
C15         C  0.13218257  0.47881790  0.08315294     0.08800
C16         C  0.15863037  0.50703265  0.13055847     0.19700
C17         C  0.18100340  0.55063778  0.09223531    -0.55100
C18         C  0.16112042  0.55102170  0.11358739     0.08900
C19         C  0.22700366  0.49229154  0.14288892    -0.54600
C20         C  0.20741352  0.49173888  0.16428249     0.09500
H21         H  0.13863101  0.46041025  0.02849520     0.14000
H22         H  0.14397978  0.50717158  0.14929697    -0.00300
H23         H  0.18481901  0.57914819  0.07824693     0.14300
H24         H  0.26078396  0.48120045  0.16133271     0.14100
C25         C  0.46934015  0.81837766  0.35373164     0.85900
C26         C  0.45960816  0.77223584  0.36007860    -0.54400
C27         C  0.43681925  0.76901224  0.37790133     0.08800
C28         C  0.42527133  0.81223556  0.38755462     0.19700
C29         C  0.42222064  0.83742882  0.32056534    -0.55100
C30         C  0.39878398  0.83417734  0.33768300     0.08900
C31         C  0.49364903  0.84053922  0.40445372    -0.54600
C32         C  0.47070657  0.83752688  0.42234863     0.09500
H33         H  0.46812177  0.74409108  0.35000489     0.14000
H34         H  0.40645325  0.80930118  0.40165055    -0.00300
H35         H  0.40816365  0.85131663  0.28557280     0.14300
H36         H  0.52526500  0.85876469  0.42331844     0.14100
C37         C  0.31718993  0.52368850  0.46496421     0.85900
C38         C  0.36007757  0.49706776  0.49345189    -0.54400
C39         C  0.38174815  0.49655993  0.47391047     0.08800
C40         C  0.35713814  0.52233192  0.42648279     0.19700
C41         C  0.33404414  0.56759921  0.46280986    -0.55100
C42         C  0.35465012  0.56719221  0.44238829     0.08900
C43         C  0.28743444  0.50544534  0.41216837    -0.54600
C44         C  0.30820341  0.50394687  0.39201205     0.09500
H45         H  0.36951913  0.48234735  0.02740940     0.14000
H46         H  0.37317376  0.52269416  0.40926411    -0.00300
H47         H  0.32992459  0.59663458  0.47632223     0.14300
H48         H  0.25373299  0.49183855  0.39379155     0.14100
C49         C  0.02832754  0.03409075  0.19975472     0.85900
C50         C  0.07678154  0.01869811  0.23702152    -0.54400
C51         C  0.09990994  0.01648483  0.21963730     0.08800
C52         C  0.07227947  0.02998656  0.16608272     0.19700
C53         C  0.03341768  0.07680896  0.18245502    -0.55100
C54         C  0.05708573  0.07478851  0.16566459     0.08900
C55         C  0.00544461  0.00388471  0.15398874    -0.54600
C56         C  0.02859928  0.00200788  0.13631047     0.09500
H57         H  0.09181237  0.01117746  0.27456820     0.14000
H58         H  0.09109391  0.02854738  0.15192284    -0.00300
H59         H  0.02085011  0.10638001  0.18493463     0.14300
H60         H  0.97404417  0.98590616  0.13683343     0.14100
C61         C  0.20139317  0.31113261  0.09986875     0.85900
C62         C  0.18989783  0.26669768  0.10763758    -0.54400
C63         C  0.17052511  0.26713217  0.12927774     0.08800
C64         C  0.16377268  0.31191438  0.14080485     0.19700
C65         C  0.15570822  0.33359335  0.06971282    -0.55100
C66         C  0.13503794  0.33357344  0.09047816     0.08900
C67         C  0.23036406  0.33340022  0.15047278    -0.54600
C68         C  0.21085443  0.33437698  0.17190108     0.09500
H69         H  0.19573820  0.23739190  0.09619083     0.14000
H70         H  0.14975544  0.31098615  0.16014551    -0.00300
H71         H  0.14018923  0.34597779  0.03390696     0.14300
H72         H  0.26269821  0.34924890  0.16666658     0.14100
C73         C  0.41935310  0.00865548  0.33510147     0.85900
C74         C  0.37132163  0.99003619  0.30912194    -0.54400
C75         C  0.35661856  0.99308633  0.33586045     0.08800
C76         C  0.39295127  0.01468400  0.38754229     0.19700
C77         C  0.41728870  0.05459892  0.34882832    -0.55100
C78         C  0.40407477  0.05802524  0.37663381     0.08900
C79         C  0.44961243  0.98642665  0.38417292    -0.54600
C80         C  0.43619839  0.98940772  0.41186910     0.09500
H81         H  0.34972715  0.97896188  0.27102999     0.14000
H82         H  0.38354302  0.01742799  0.41133391    -0.00300
H83         H  0.42416208  0.08244417  0.33633921     0.14300
H84         H  0.47886199  0.96899295  0.39561419     0.14100
C85         C  0.31509544  0.32628554  0.46638010     0.85900
C86         C  0.31725200  0.27993442  0.45377150    -0.54400
C87         C  0.33662173  0.27526168  0.43221463     0.08800
C88         C  0.35158742  0.31791668  0.42445030     0.19700
C89         C  0.36379418  0.34431520  0.49752989    -0.55100
C90         C  0.38392593  0.33949601  0.47658441     0.08900
C91         C  0.28970503  0.34795124  0.41703326    -0.54600
C92         C  0.30875475  0.34442603  0.39523732     0.09500
H93         H  0.30469724  0.25296723  0.46136479     0.14000
H94         H  0.36553466  0.31370508  0.40524928    -0.00300
H95         H  0.37029106  0.35673748  0.02746894     0.14300
H96         H  0.25909193  0.36512525  0.40031819     0.14100
O97         O  0.24772053  0.46376866  0.32095369    -0.75000
O98         O  0.20473060  0.37370912  0.22529522    -0.75100
O99         O  0.24917606  0.37921218  0.32389256    -0.75100
O100        O  0.20330303  0.45842638  0.22178560    -0.75200
O101        O  0.26977510  0.46028548  0.23810077    -0.75100
O102        O  0.31582354  0.38028565  0.34059636    -0.75100
O103        O  0.27117654  0.37577346  0.24147600    -0.75100
O104        O  0.31441935  0.46557164  0.33777776    -0.75100
Ni105      Ni  0.22394960  0.41877429  0.27249040     1.25400
Ni106      Ni  0.29520738  0.42063595  0.29006833     1.25400
C107        C  0.28885609  0.47758861  0.34716078     0.87100
C108        C  0.23019185  0.36160440  0.21590081     0.87100
C109        C  0.29029605  0.36809222  0.35033270     0.87100
C110        C  0.22820984  0.47023866  0.21113178     0.87300
O111        O  0.00427027  0.96373691  0.48633296    -0.75000
O112        O  0.06194985  0.88797375  0.09144025    -0.75100
O113        O  0.02208880  0.88180347  0.49065210    -0.75100
O114        O  0.04349865  0.97037901  0.08657504    -0.75200
O115        O  0.97760803  0.95288514  0.06817895    -0.75100
O116        O  0.45254043  0.86495932  0.97250791    -0.75100
O117        O  0.99585069  0.87064280  0.07274658    -0.75100
O118        O  0.43535589  0.94795771  0.96813135    -0.75100
Ni119      Ni  0.03522129  0.92888625  0.04093385     1.25400
Ni120      Ni  0.46216198  0.90674158  0.01919346     1.25400
C121        C  0.46054384  0.96739725  0.45907622     0.87100
C122        C  0.03870476  0.86703176  0.09991410     0.87100
C123        C  0.48462802  0.86248424  0.46647307     0.87100
C124        C  0.01539121  0.97412851  0.09447560     0.87300
C125        C  0.39967489  0.10014062  0.39248459    -0.05900
C126        C  0.43344618  0.13230335  0.41133037    -0.05800
C127        C  0.42817761  0.17300765  0.42310349    -0.23900
C128        C  0.38868137  0.18251733  0.41557072     0.18300
C129        C  0.35462825  0.15029005  0.39673796     0.15500
C130        C  0.36050241  0.10936815  0.38567517    -0.19000
C131        C  0.31489948  0.15966695  0.38858351    -0.20800
C132        C  0.30902071  0.20037870  0.39938457    -0.13400
C133        C  0.34266625  0.23270358  0.41854885     0.03300
C134        C  0.38246220  0.22359692  0.42626945    -0.25500
H135        H  0.46395479  0.12589352  0.41681229     0.08400
H136        H  0.45474571  0.19714709  0.43754751     0.12000
H137        H  0.33379972  0.08526286  0.36996653     0.11900
H138        H  0.28830565  0.13547672  0.37381927     0.11700
H139        H  0.27782821  0.20666661  0.39245374     0.12200
H140        H  0.40884302  0.24811735  0.44145514     0.14200
C141        C  0.43343535  0.34879872  0.50405215    -0.05900
C142        C  0.46383608  0.35394219  0.55588468    -0.05800
C143        C  0.50174627  0.34971858  0.08000091    -0.23900
C144        C  0.02123869  0.34904436  0.06075156     0.18300
C145        C  0.49110759  0.34812524  0.00435193     0.15500
C146        C  0.45148805  0.34852614  0.47946693    -0.19000
C147        C  0.01123846  0.35805784  0.98618727    -0.20800
C148        C  0.05763645  0.35385168  0.01277279    -0.13400
C149        C  0.08684257  0.34615048  0.06371105     0.03300
C150        C  0.06808700  0.34630974  0.08763482    -0.25500
H151        H  0.45237159  0.35427760  0.57700429     0.08400
H152        H  0.52350078  0.35002746  0.11982917     0.12000
H153        H  0.42950611  0.34634350  0.43976348     0.11900
H154        H  0.98979863  0.36263056  0.94690751     0.11700
H155        H  0.06959015  0.35500081  0.99216680     0.12200
H156        H  0.08908569  0.34282132  0.12688271     0.14200
C157        C  0.22629837  0.31009556  0.07916145    -0.05900
C158        C  0.26152231  0.28167035  0.09842279    -0.05800
C159        C  0.28635604  0.27320525  0.57722907    -0.23900
C160        C  0.27388759  0.30573741  0.04252697     0.18300
C161        C  0.24118469  0.33663319  0.02557003     0.15500
C162        C  0.21783988  0.33888108  0.04403762    -0.19000
C163        C  0.23252720  0.36511134  0.99057878    -0.20800
C164        C  0.25452266  0.36189886  0.97097328    -0.13400
C165        C  0.29466547  0.33172922  0.49185572     0.03300
C166        C  0.30205958  0.30162005  0.52536792    -0.25500
H167        H  0.27091395  0.26084572  0.12763013     0.08400
H168        H  0.30897313  0.24754570  0.58771772     0.12000
H169        H  0.19384615  0.36353445  0.03136247     0.11900
H170        H  0.20886878  0.39012409  0.97849072     0.11700
H171        H  0.24820756  0.38617213  0.94611986     0.12200
H172        H  0.32407150  0.27560120  0.53509450     0.14200
C173        C  0.30795386  0.98388526  0.31310755    -0.05900
C174        C  0.27783180  0.96130763  0.26745213    -0.05800
C175        C  0.23114524  0.96015288  0.24152305    -0.23900
C176        C  0.21324522  0.98128529  0.26056916     0.18300
C177        C  0.24305800  0.00096078  0.30794953     0.15500
C178        C  0.28993188  0.00133494  0.33414439    -0.19000
C179        C  0.22544718  0.02198881  0.32742885    -0.20800
C180        C  0.17885026  0.02534412  0.29935563    -0.13400
C181        C  0.14881574  0.00757128  0.25128394     0.03300
C182        C  0.16624465  0.98453608  0.23253008    -0.25500
H183        H  0.28984297  0.94500475  0.25081427     0.08400
H184        H  0.20896047  0.94380277  0.20581164     0.12000
H185        H  0.31161672  0.01738238  0.36979253     0.11900
H186        H  0.24778859  0.03730699  0.36372021     0.11700
H187        H  0.16640854  0.04362063  0.31450286     0.12200
H188        H  0.14334230  0.97022889  0.19569623     0.14200
C189        C  0.00662484  0.03788582  0.22403246    -0.05900
C190        C  0.02084668  0.07196553  0.25797797    -0.05800
C191        C  0.00625785  0.07452360  0.28544521    -0.23900
C192        C  0.97834576  0.04220904  0.28129044     0.18300
C193        C  0.46472890  0.00022350  0.24856047     0.15500
C194        C  0.97844782  0.00527448  0.21994024    -0.19000
C195        C  0.43568284  0.96844586  0.24347049    -0.20800
C196        C  0.42176432  0.97055171  0.27184013    -0.13400
C197        C  0.43593314  0.00490054  0.30546082     0.03300
C198        C  0.96513323  0.04397782  0.31040824    -0.25500
H199        H  0.04437652  0.09647446  0.26430352     0.08400
H200        H  0.01784005  0.10132206  0.31095042     0.12000
H201        H  0.46663003  0.97258685  0.19372101     0.11900
H202        H  0.42363727  0.94194986  0.21747073     0.11700
H203        H  0.39986385  0.94512213  0.26731475     0.12200
H204        H  0.97760361  0.07042586  0.33643029     0.14200
C205        C  0.15563481  0.22795930  0.13866362    -0.05900
C206        C  0.18499726  0.19430330  0.16247903    -0.05800
C207        C  0.17119246  0.15734980  0.17184784    -0.23900
C208        C  0.12753747  0.15332569  0.15682707     0.18300
C209        C  0.09747113  0.18683320  0.13204421     0.15500
C210        C  0.11187402  0.22412193  0.12346828    -0.19000
C211        C  0.05370068  0.18256450  0.11669162    -0.20800
C212        C  0.04021878  0.14586128  0.12689997    -0.13400
C213        C  0.07017137  0.11277638  0.15229838     0.03300
C214        C  0.11367063  0.11656494  0.16671227    -0.25500
H215        H  0.21890324  0.19694628  0.17451226     0.08400
H216        H  0.19464520  0.13198991  0.19089992     0.12000
H217        H  0.08899335  0.24994491  0.10455771     0.11900
H218        H  0.03008534  0.20775455  0.09725352     0.11700
H219        H  0.00635554  0.14331668  0.11495877     0.12200
H220        H  0.13726263  0.09149241  0.18696255     0.14200
C221        C  0.42171591  0.72757216  0.38382272    -0.05900
C222        C  0.40318606  0.69479494  0.34762071    -0.05800
C223        C  0.38722444  0.65643239  0.35220351    -0.23900
C224        C  0.38979642  0.65001631  0.39326879     0.18300
C225        C  0.40930319  0.68247878  0.43034365     0.15500
C226        C  0.42488416  0.72103461  0.42525158    -0.19000
C227        C  0.41242146  0.67604995  0.47167250    -0.22800
C228        C  0.39524016  0.63840822  0.47567769    -0.13400
C229        C  0.37456506  0.60631054  0.43847695     0.03300
C230        C  0.37263143  0.61208650  0.39761274    -0.25500
H231        H  0.40002510  0.69925260  0.31511569     0.08400
H232        H  0.37245383  0.63197511  0.32339263     0.12000
H233        H  0.43960663  0.74595171  0.45359873     0.11900
H234        H  0.42779701  0.70033186  0.50075171     0.11700
H235        H  0.39826779  0.63438220  0.50814781     0.12200
H236        H  0.35665442  0.58770869  0.36855800     0.14200
C237        C  0.42785215  0.47898955  0.49974249    -0.05900
C238        C  0.45522763  0.47553890  0.05355705    -0.05800
C239        C  0.50087785  0.46725304  0.07986657    -0.23900
C240        C  0.01812978  0.46472821  0.05263622     0.18300
C241        C  0.98879457  0.47056314  0.00144094     0.15500
C242        C  0.44522952  0.47359038  0.47478393    -0.19000
C243        C  0.00755395  0.46541209  0.47477902    -0.20800
C244        C  0.05278779  0.47076008  0.00280159    -0.13400
C245        C  0.08297514  0.46770846  0.05441327     0.03300
C246        C  0.06488534  0.46203950  0.07861284    -0.25500
H247        H  0.44410813  0.48217113  0.07445371     0.08400
H248        H  0.52297728  0.46698878  0.11969144     0.12000
H249        H  0.42353815  0.47599504  0.43524470     0.11900
H250        H  0.98535464  0.46836322  0.43517975     0.11700
H251        H  0.06493213  0.47554851  0.98258137     0.12200
H252        H  0.08727021  0.45837864  0.11808346     0.14200
C253        C  0.21802119  0.50294600  0.06529521    -0.05900
C254        C  0.24048171  0.46567555  0.07100308    -0.05800
C255        C  0.26383396  0.46231913  0.05286200    -0.23900
C256        C  0.26370148  0.49535114  0.02651407     0.18300
C257        C  0.23882959  0.53168828  0.01745201     0.15500
C258        C  0.21624908  0.53533883  0.03676300    -0.19000
C259        C  0.23479371  0.55959356  0.48501466    -0.20800
C260        C  0.25910148  0.55677573  0.46794230    -0.13400
C261        C  0.29128035  0.52538646  0.48468258     0.03300
C262        C  0.28785522  0.49258428  0.00895336    -0.25500
H263        H  0.24101229  0.43935113  0.09085148     0.08400
H264        H  0.28234922  0.43396042  0.05985466     0.12000
H265        H  0.19699555  0.56322602  0.02852791     0.11900
H266        H  0.21112236  0.58473939  0.47213314     0.11700
H267        H  0.25290754  0.57958341  0.44166717     0.12200
H268        H  0.30586945  0.46404915  0.01522736     0.14200
C269        C  0.18916771  0.85168307  0.24509357    -0.05900
C270        C  0.21796884  0.86655764  0.29471508    -0.05800
C271        C  0.26485639  0.87027364  0.32208748    -0.23900
C272        C  0.28416745  0.85958224  0.30050364     0.18300
C273        C  0.25553284  0.84967951  0.24952896     0.15500
C274        C  0.20848917  0.84679044  0.22210858    -0.19000
C275        C  0.27446922  0.84041972  0.22721651    -0.20800
C276        C  0.32113697  0.83758904  0.25570475    -0.13400
C277        C  0.35007615  0.84437146  0.30716697     0.03300
C278        C  0.33133820  0.85709305  0.32908116    -0.25500
H279        H  0.20491213  0.87392646  0.31348299     0.08400
H280        H  0.28610392  0.87976488  0.36071561     0.12000
H281        H  0.18789458  0.83851796  0.18349660     0.11900
H282        H  0.25304891  0.83322305  0.18799297     0.11700
H283        H  0.33415012  0.82758510  0.23748296     0.12200
H284        H  0.35319700  0.86359708  0.36846215     0.14200
C285        C  0.06084941  0.79885902  0.24288162    -0.05900
C286        C  0.05292119  0.75820484  0.25327743    -0.05800
C287        C  0.55127540  0.76041890  0.29736337    -0.23900
C288        C  0.53184716  0.79464981  0.30267179     0.18300
C289        C  0.03300876  0.82986749  0.28350815     0.15500
C290        C  0.05134608  0.83463898  0.25932284    -0.19000
C291        C  0.02210545  0.86525084  0.29832109    -0.20800
C292        C  0.49386534  0.86351648  0.31395584    -0.13400
C293        C  0.49406274  0.82396821  0.33258138     0.03300
C294        C  0.51538449  0.79024739  0.32858031    -0.25500
H295        H  0.05994293  0.72925720  0.24314153     0.08400
H296        H  0.55513901  0.73055953  0.31447663     0.12000
H297        H  0.05740328  0.86625916  0.25231038     0.11900
H298        H  0.02813595  0.89711973  0.29190231     0.11700
H299        H  0.99359046  0.88795846  0.33068842     0.12200
H300        H  0.51939825  0.76024988  0.34523589     0.14200
C301        C  0.14110170  0.58938073  0.11721510    -0.05900
C302        C  0.10447829  0.58472515  0.11708917    -0.05800
C303        C  0.08687849  0.61999322  0.12315984    -0.23900
C304        C  0.10533571  0.66078944  0.12923494     0.18300
C305        C  0.14078565  0.66628053  0.12735611     0.15500
C306        C  0.15839754  0.63062471  0.12123895    -0.19000
C307        C  0.15891588  0.70725041  0.13319361    -0.20800
C308        C  0.14414862  0.74199195  0.14408174    -0.13400
C309        C  0.11065981  0.73660932  0.14892643     0.03300
C310        C  0.08988311  0.69593501  0.13884164    -0.25500
H311        H  0.08899866  0.55382092  0.11206830     0.08400
H312        H  0.05928434  0.61524588  0.12391858     0.12000
H313        H  0.18663402  0.63504670  0.12156211     0.11900
H314        H  0.18572551  0.71224005  0.13119080     0.11700
H315        H  0.16061285  0.77250993  0.15078920     0.12200
H316        H  0.06246611  0.69109356  0.13982515     0.14200
C317        C  0.07480337  0.80404379  0.71335774     0.85900
C318        C  0.08224531  0.76264753  0.69565194    -0.54400
C319        C  0.09985258  0.76877373  0.67227232     0.08800
C320        C  0.10851598  0.81600128  0.66881860     0.19700
C321        C  0.12191735  0.82666976  0.74568625    -0.55100
C322        C  0.14058830  0.83285546  0.72319127     0.08900
C323        C  0.04567138  0.83062407  0.66725048    -0.54600
C324        C  0.06295237  0.83690232  0.64367724     0.09500
H325        H  0.07735199  0.73115061  0.70395358     0.14000
H326        H  0.12041981  0.82068959  0.64769328    -0.00300
H327        H  0.13945114  0.83431372  0.78412556     0.14300
H328        H  0.01408162  0.84375473  0.65463216     0.14100
C329        C  0.19850865  0.50594597  0.59062768     0.85900
C330        C  0.15534917  0.47705561  0.56277181    -0.54400
C331        C  0.13333776  0.47810902  0.58181310     0.08800
C332        C  0.15862135  0.50648227  0.62907037     0.19700
C333        C  0.18315528  0.55031254  0.59290437    -0.55100
C334        C  0.16190124  0.55042495  0.61275750     0.08900
C335        C  0.22829165  0.49210870  0.64421643    -0.54600
C336        C  0.20749495  0.49154747  0.66417558     0.09500
H337        H  0.14195687  0.45986039  0.52882335     0.14000
H338        H  0.14277201  0.50704817  0.64654705    -0.00300
H339        H  0.18822754  0.57901022  0.58004925     0.14300
H340        H  0.26256782  0.48178621  0.66424377     0.14100
C341        C  0.46993563  0.81678683  0.85548507     0.85900
C342        C  0.46466323  0.77031147  0.86484407    -0.54400
C343        C  0.44140169  0.76518514  0.88198702     0.08800
C344        C  0.42572341  0.80716624  0.88869076     0.19700
C345        C  0.42145136  0.83260682  0.82085964    -0.55100
C346        C  0.39792027  0.82762980  0.83785667     0.08900
C347        C  0.49212896  0.84001730  0.90529876    -0.54600
C348        C  0.46876851  0.83552864  0.92235126     0.09500
H349        H  0.47812265  0.74371797  0.85851444     0.14000
H350        H  0.40724630  0.80251477  0.90295995    -0.00300
H351        H  0.40737030  0.84666743  0.78594857     0.14300
H352        H  0.52326759  0.85908903  0.92548861     0.14100
C353        C  0.31436995  0.52388845  0.96368324     0.85900
C354        C  0.35698499  0.49693333  0.99331418    -0.54400
C355        C  0.37928640  0.49532980  0.97457240     0.08800
C356        C  0.35557712  0.52031897  0.92678596     0.19700
C357        C  0.33216982  0.56727806  0.96151563    -0.55100
C358        C  0.35378110  0.56571538  0.94227193     0.08900
C359        C  0.28495353  0.50507724  0.91118515    -0.54600
C360        C  0.30625542  0.50238962  0.89174847     0.09500
H361        H  0.37324234  0.48176544  0.52728932     0.14000
H362        H  0.37238434  0.51946582  0.91042296    -0.00300
H363        H  0.32895420  0.59670020  0.97522632     0.14300
H364        H  0.25096023  0.49209522  0.89242450     0.14100
C365        C  0.02710918  0.03071536  0.69623870     0.85900
C366        C  0.07547496  0.01480770  0.73484201    -0.54400
C367        C  0.10000689  0.01274228  0.71887485     0.08800
C368        C  0.07392798  0.02706868  0.66570028     0.19700
C369        C  0.03515648  0.07388994  0.68207589    -0.55100
C370        C  0.05952308  0.07216432  0.66617237     0.08900
C371        C  0.00562279  0.00124861  0.65050848    -0.54600
C372        C  0.03000010  0.99926941  0.63435837     0.09500
H373        H  0.08944057  0.00704283  0.77198231     0.14000
H374        H  0.09363180  0.02569071  0.65261179    -0.00300
H375        H  0.02641336  0.10417526  0.68815867     0.14300
H376        H  0.97433739  0.98288392  0.63320915     0.14100
C377        C  0.20620900  0.30755946  0.60113079     0.85900
C378        C  0.19660968  0.26363645  0.61234036    -0.54400
C379        C  0.17558936  0.26512959  0.63218252     0.08800
C380        C  0.16544415  0.31035138  0.63846980     0.19700
C381        C  0.15918466  0.32721652  0.56714350    -0.55100
C382        C  0.13722910  0.32870510  0.58630252     0.08900
C383        C  0.23227240  0.33339800  0.64955799    -0.54600
C384        C  0.21107361  0.33504453  0.66918683     0.09500
H385        H  0.20380275  0.23371819  0.60343259     0.14000
H386        H  0.15014069  0.31047022  0.65643889    -0.00300
H387        H  0.14448794  0.33769284  0.53071613     0.14300
H388        H  0.26421883  0.35019048  0.66599651     0.14100
C389        C  0.42103466  0.00813768  0.83550194     0.85900
C390        C  0.37289261  0.98936942  0.80883641    -0.54400
C391        C  0.35714260  0.99310397  0.83465003     0.08800
C392        C  0.39270343  0.01496813  0.88615724     0.19700
C393        C  0.41966747  0.05428021  0.84961657    -0.55100
C394        C  0.40448934  0.05804780  0.87557465     0.08900
C395        C  0.45059860  0.98643170  0.88535441    -0.54600
C396        C  0.43581401  0.98947333  0.91170235     0.09500
H397        H  0.35263683  0.97659012  0.77140592     0.14000
H398        H  0.38269136  0.01812479  0.90932989    -0.00300
H399        H  0.42977221  0.08192620  0.84019926     0.14300
H400        H  0.48063126  0.96944612  0.89875492     0.14100
C401        C  0.30581981  0.32293718  0.95972277     0.85900
C402        C  0.30941083  0.27650184  0.94859957    -0.54400
C403        C  0.32989922  0.27202741  0.92812847     0.08800
C404        C  0.34473516  0.31480232  0.92039622     0.19700
C405        C  0.35435003  0.34174739  0.99172897    -0.55100
C406        C  0.37562896  0.33692048  0.97211274     0.08900
C407        C  0.28105822  0.34373380  0.90989857    -0.54600
C408        C  0.30160530  0.34065085  0.88976273     0.09500
H409        H  0.29718244  0.24953225  0.95661709     0.14000
H410        H  0.35991231  0.31082308  0.90244782    -0.00300
H411        H  0.38045673  0.35895085  0.53356899     0.14300
H412        H  0.24978581  0.36010154  0.89144787     0.14100
O413        O  0.24543712  0.46206284  0.82006869    -0.75000
O414        O  0.20224439  0.37440846  0.72086460    -0.75100
O415        O  0.24409802  0.37706272  0.81893389    -0.75100
O416        O  0.20214393  0.45919642  0.72095095    -0.75200
O417        O  0.26913546  0.46014329  0.73845641    -0.75100
O418        O  0.31193172  0.37819037  0.83844779    -0.75100
O419        O  0.26997492  0.37580281  0.74007206    -0.75100
O420        O  0.31249870  0.46373330  0.83777451    -0.75100
Ni421      Ni  0.22114749  0.41820733  0.76969067     1.25400
Ni422      Ni  0.29330386  0.41962585  0.78938072     1.25400
C423        C  0.28677407  0.47575640  0.84686084     0.87100
C424        C  0.22873625  0.36230533  0.71277054     0.87100
C425        C  0.28501957  0.36539881  0.84611436     0.87100
C426        C  0.22765078  0.47055865  0.71103556     0.87300
O427        O  0.00369093  0.96789752  0.98846364    -0.75000
O428        O  0.06327109  0.88297974  0.58991931    -0.75100
O429        O  0.02250764  0.88622598  0.99404293    -0.75100
O430        O  0.04569217  0.96608460  0.58538030    -0.75200
O431        O  0.97996983  0.94888813  0.56745318    -0.75100
O432        O  0.45699387  0.86592521  0.47518021    -0.75100
O433        O  0.99708969  0.86637844  0.57120865    -0.75100
O434        O  0.43825274  0.94828058  0.46993085    -0.75100
Ni435      Ni  0.03623977  0.92426730  0.53888739     1.25400
Ni436      Ni  0.46670163  0.90800782  0.52172367     1.25400
C437        C  0.45868505  0.96700870  0.95849164     0.87100
C438        C  0.04000617  0.86284112  0.59902702     0.87100
C439        C  0.48102349  0.86109327  0.96509579     0.87100
C440        C  0.01761127  0.97039524  0.59330558     0.87300
C441        C  0.39847743  0.10012730  0.89004122    -0.05900
C442        C  0.43176914  0.13290654  0.90986970    -0.05800
C443        C  0.42514634  0.17316429  0.92124038    -0.23900
C444        C  0.38486853  0.18151023  0.91256033     0.18300
C445        C  0.35121464  0.14871700  0.89257653     0.15500
C446        C  0.35829042  0.10836176  0.88157425    -0.19000
C447        C  0.31084864  0.15687094  0.88361684    -0.20800
C448        C  0.30405036  0.19691562  0.89496602    -0.13400
C449        C  0.33725826  0.22980759  0.91513826     0.03300
C450        C  0.37758931  0.22194553  0.92347117    -0.25500
H451        H  0.46303141  0.12729972  0.91668434     0.08400
H452        H  0.45141914  0.19779567  0.93659284     0.12000
H453        H  0.33191394  0.08384644  0.86499140     0.11900
H454        H  0.28455684  0.13220053  0.86798215     0.11700
H455        H  0.27247492  0.20229649  0.88751854     0.12200
H456        H  0.40362510  0.24693331  0.93936271     0.14200
C457        C  0.42527247  0.34599051  0.00082535    -0.05900
C458        C  0.45499246  0.34801098  0.05275788    -0.05800
C459        C  0.51042919  0.35635065  0.58231469    -0.23900
C460        C  0.02460906  0.34822274  0.55572726     0.18300
C461        C  0.49845731  0.34889556  0.50611542     0.15500
C462        C  0.44402450  0.34812339  0.97703958    -0.19000
C463        C  0.01305905  0.34952056  0.47965243    -0.20800
C464        C  0.05949690  0.34489230  0.50621671    -0.13400
C465        C  0.08915161  0.34152009  0.55793528     0.03300
C466        C  0.07120169  0.34629759  0.58221816    -0.25500
H467        H  0.44267318  0.34614407  0.07301744     0.08400
H468        H  0.53270314  0.35919106  0.62214123     0.12000
H469        H  0.42237792  0.34831296  0.93734173     0.11900
H470        H  0.99105584  0.35096764  0.43991481     0.11700
H471        H  0.07130925  0.34220785  0.48550576     0.12200
H472        H  0.09279015  0.34701837  0.62185601     0.14200
C473        C  0.23196417  0.30666541  0.58136841    -0.05900
C474        C  0.26295727  0.27470468  0.59535081    -0.05800
C475        C  0.28452255  0.27901041  0.07982407    -0.23900
C476        C  0.28033961  0.30426680  0.54565163     0.18300
C477        C  0.25194103  0.33821731  0.53395071     0.15500
C478        C  0.22862920  0.33969916  0.55256363    -0.19000
C479        C  0.24728441  0.36999767  0.50368951    -0.20800
C480        C  0.26910615  0.36727645  0.48372937    -0.13400
C481        C  0.28417097  0.32870344  0.98391368     0.03300
C482        C  0.29530891  0.30204917  0.02186065    -0.25500
H483        H  0.26958074  0.25065219  0.62065880     0.08400
H484        H  0.31041794  0.25589028  0.09443507     0.12000
H485        H  0.20771008  0.36640040  0.54424041     0.11900
H486        H  0.22634763  0.39678363  0.49497267     0.11700
H487        H  0.26555363  0.39320134  0.46179232     0.12200
H488        H  0.32008970  0.27804148  0.03475228     0.14200
C489        C  0.30856947  0.98315925  0.81218805    -0.05900
C490        C  0.27873768  0.95999459  0.76699299    -0.05800
C491        C  0.23208818  0.95783380  0.74150584    -0.23900
C492        C  0.21393164  0.97855797  0.76054552     0.18300
C493        C  0.24349847  0.99867228  0.80763195     0.15500
C494        C  0.29035583  0.00007949  0.83339101    -0.19000
C495        C  0.22558245  0.01904785  0.82720522    -0.20800
C496        C  0.17883354  0.02153709  0.79928807    -0.13400
C497        C  0.14900897  0.00364350  0.75126543     0.03300
C498        C  0.16685599  0.98106199  0.73265494    -0.25500
H499        H  0.29092998  0.94423461  0.75025488     0.08400
H500        H  0.21005928  0.94115410  0.70600472     0.12000
H501        H  0.31169652  0.01644950  0.86880438     0.11900
H502        H  0.24775463  0.03459337  0.86337640     0.11700
H503        H  0.16609228  0.03941382  0.81435163     0.12200
H504        H  0.14415197  0.96667100  0.69585603     0.14200
C505        C  0.99968025  0.03213610  0.71450034    -0.05900
C506        C  0.97524853  0.06807796  0.70838217    -0.05800
C507        C  0.95462727  0.07086149  0.72965380    -0.23900
C508        C  0.95647569  0.03740457  0.75654883     0.18300
C509        C  0.47801849  0.99741552  0.76029561     0.15500
C510        C  0.99845315  0.99713475  0.73849430    -0.19000
C511        C  0.47850740  0.96314269  0.78567168    -0.20800
C512        C  0.45815069  0.96579934  0.80746042    -0.13400
C513        C  0.43758438  0.00329218  0.80554503     0.03300
C514        C  0.93797783  0.04127042  0.78039948    -0.25500
H515        H  0.97119792  0.09448241  0.68687318     0.08400
H516        H  0.93741265  0.09952052  0.72528363     0.12000
H517        H  0.51990722  0.96851011  0.74661728     0.11900
H518        H  0.49526385  0.93447280  0.78929481     0.11700
H519        H  0.45954025  0.93864829  0.82687488     0.12200
H520        H  0.92168574  0.07032320  0.77671154     0.14200
C521        C  0.16143235  0.22649818  0.64368503    -0.05900
C522        C  0.18951256  0.19158869  0.66477284    -0.05800
C523        C  0.17551512  0.15467617  0.67411714    -0.23900
C524        C  0.13283955  0.15178025  0.66175358     0.18300
C525        C  0.10451399  0.18688969  0.64088511     0.15500
C526        C  0.11915767  0.22411813  0.63245147    -0.19000
C527        C  0.06168652  0.18391506  0.62802131    -0.20800
C528        C  0.04688753  0.14642932  0.63541696    -0.13400
C529        C  0.07473151  0.11124716  0.65622328     0.03300
C530        C  0.11787682  0.11429427  0.66950849    -0.25500
H531        H  0.22245338  0.19295272  0.67424291     0.08400
H532        H  0.19780680  0.12821000  0.69039946     0.12000
H533        H  0.09702109  0.25069649  0.61565525     0.11900
H534        H  0.03946948  0.21045904  0.61185267     0.11700
H535        H  0.01337914  0.14489367  0.62448967     0.12200
H536        H  0.14012059  0.08784527  0.68656516     0.14200
C537        C  0.42971199  0.72298743  0.89034225    -0.05900
C538        C  0.41411891  0.68919120  0.85599091    -0.05800
C539        C  0.39809493  0.65090848  0.86053027    -0.23900
C540        C  0.39758089  0.64563794  0.89965004     0.18300
C541        C  0.41523079  0.67873585  0.93570602     0.15500
C542        C  0.43112445  0.71718718  0.93079183    -0.19000
C543        C  0.41538019  0.67324700  0.97521409    -0.22800
C544        C  0.39632780  0.63622016  0.97777309    -0.13400
C545        C  0.37663466  0.60385571  0.94084972     0.03300
C546        C  0.37849957  0.60842815  0.90250375    -0.25500
H547        H  0.41255105  0.69301515  0.82442477     0.08400
H548        H  0.38500468  0.62581720  0.83270551     0.12000
H549        H  0.44379307  0.74287724  0.95790557     0.11900
H550        H  0.42949050  0.69792655  0.00369276     0.11700
H551        H  0.39691117  0.63304126  0.00874445     0.12200
H552        H  0.36355027  0.58385902  0.87378627     0.14200
C553        C  0.42565224  0.47820948  0.00183420    -0.05900
C554        C  0.45697877  0.47231755  0.55086881    -0.05800
C555        C  0.50269108  0.46469145  0.57677868    -0.23900
C556        C  0.01962472  0.46090507  0.55107237     0.18300
C557        C  0.99005521  0.46541525  0.49963882     0.15500
C558        C  0.44263212  0.46932108  0.97706363    -0.19000
C559        C  0.00626503  0.47164918  0.97661449    -0.20800
C560        C  0.05427223  0.46568149  0.50117845    -0.13400
C561        C  0.08451948  0.46474896  0.55300828     0.03300
C562        C  0.06643818  0.45908002  0.57718568    -0.25500
H563        H  0.44568874  0.47543551  0.57203204     0.08400
H564        H  0.52444494  0.46154196  0.61632706     0.12000
H565        H  0.42053719  0.46920606  0.93730006     0.11900
H566        H  0.98420990  0.47595681  0.93724269     0.11700
H567        H  0.06643773  0.46990069  0.48090930     0.12200
H568        H  0.08882916  0.45645692  0.61678386     0.14200
C569        C  0.22226642  0.50289253  0.56850525    -0.05900
C570        C  0.24976019  0.46819711  0.57974223    -0.05800
C571        C  0.27485069  0.46607245  0.56366135    -0.23900
C572        C  0.27085951  0.49698954  0.53301246     0.18300
C573        C  0.24077169  0.53014513  0.51804841     0.15500
C574        C  0.21685292  0.53306026  0.53593467    -0.19000
C575        C  0.23673619  0.56377972  0.98894353    -0.20800
C576        C  0.26045205  0.56068433  0.97124861    -0.13400
C577        C  0.28826277  0.52617645  0.98303050     0.03300
C578        C  0.29580654  0.49473212  0.51637220    -0.25500
H579        H  0.25273635  0.44285645  0.60204944     0.08400
H580        H  0.29713685  0.43991569  0.57491185     0.12000
H581        H  0.19365140  0.55845440  0.52365154     0.11900
H582        H  0.21673247  0.59135902  0.98028680     0.11700
H583        H  0.25701062  0.58564461  0.94833938     0.12200
H584        H  0.31752223  0.46827590  0.52724684     0.14200
C585        C  0.18980586  0.84561287  0.75105759    -0.05900
C586        C  0.21988667  0.85266524  0.80273647    -0.05800
C587        C  0.26668103  0.85539034  0.82959934    -0.23900
C588        C  0.28483757  0.85041871  0.80577301     0.18300
C589        C  0.25544186  0.84669755  0.75398906     0.15500
C590        C  0.20847146  0.84602570  0.72706649    -0.19000
C591        C  0.27340940  0.84128452  0.72996342    -0.20800
C592        C  0.31975997  0.83655534  0.75710120    -0.13400
C593        C  0.34940951  0.83829393  0.80894522     0.03300
C594        C  0.33164619  0.84720617  0.83288154    -0.25500
H595        H  0.20811233  0.85461212  0.82350931     0.08400
H596        H  0.28870828  0.85918876  0.86932863     0.12000
H597        H  0.18721857  0.84367447  0.68753351     0.11900
H598        H  0.25134282  0.83850098  0.69013513     0.11700
H599        H  0.33187869  0.82959413  0.73722599     0.12200
H600        H  0.35386948  0.85030524  0.87265462     0.14200
C601        C  0.05423219  0.79860183  0.73917182    -0.05900
C602        C  0.02804455  0.76193292  0.73077717    -0.05800
C603        C  0.50013197  0.76875704  0.74325276    -0.23900
C604        C  0.50843839  0.79795455  0.77873511     0.18300
C605        C  0.03850601  0.82777508  0.79207144     0.15500
C606        C  0.05827079  0.83183581  0.76937511    -0.19000
C607        C  0.04291312  0.86064519  0.82230143    -0.20800
C608        C  0.52428546  0.85768407  0.84819830    -0.13400
C609        C  0.49443030  0.82256383  0.83427466     0.03300
C610        C  0.48554075  0.79372128  0.79776836    -0.25500
H611        H  0.02156894  0.73646851  0.70599358     0.08400
H612        H  0.47553053  0.74272203  0.72951360     0.12000
H613        H  0.07659238  0.86111233  0.77502088     0.11900
H614        H  0.06202177  0.88965326  0.82901976     0.11700
H615        H  0.02507592  0.88368468  0.86508221     0.12200
H616        H  0.46099234  0.76771219  0.78435451     0.14200
C617        C  0.14214837  0.58855802  0.61688781    -0.05900
C618        C  0.10206502  0.58412877  0.61032709    -0.05800
C619        C  0.08463388  0.61886040  0.61754018    -0.23900
C620        C  0.10698044  0.65880260  0.63155341     0.18300
C621        C  0.14647976  0.66403149  0.63668362     0.15500
C622        C  0.16371263  0.62895549  0.62907295    -0.19000
C623        C  0.16870723  0.70403630  0.65061698    -0.20800
C624        C  0.15280703  0.73813899  0.66085490    -0.13400
C625        C  0.11425131  0.73312468  0.65722384     0.03300
C626        C  0.09101337  0.69332359  0.64155626    -0.25500
H627        H  0.08402970  0.55368303  0.59960540     0.08400
H628        H  0.05403609  0.61430790  0.61288044     0.12000
H629        H  0.19470324  0.63280180  0.63441596     0.11900
H630        H  0.19901038  0.70873999  0.65472442     0.11700
H631        H  0.17187093  0.76799743  0.67334749     0.12200
H632        H  0.06081110  0.68901086  0.63771025     0.14200
C633        C  0.57694495  0.80636825  0.21567105     0.85900
C634        C  0.58346559  0.76456738  0.19764981    -0.54400
C635        C  0.59909787  0.77008522  0.17221525     0.08800
C636        C  0.60633663  0.81719097  0.16666243     0.19700
C637        C  0.62300964  0.83045946  0.24482067    -0.55100
C638        C  0.63979559  0.83562674  0.22023226     0.08900
C639        C  0.54508723  0.83101628  0.16832280    -0.54600
C640        C  0.56049367  0.83710012  0.14290568     0.09500
H641        H  0.57681086  0.73321120  0.20442677     0.14000
H642        H  0.61664147  0.82180693  0.14397700    -0.00300
H643        H  0.64130636  0.83972566  0.28304078     0.14300
H644        H  0.51350695  0.84350618  0.15646554     0.14100
C645        C  0.69566244  0.50592830  0.09151188     0.85900
C646        C  0.65338654  0.47610351  0.06553440    -0.54400
C647        C  0.63205269  0.47754938  0.08535918     0.08800
C648        C  0.65740795  0.50707123  0.13170929     0.19700
C649        C  0.67937038  0.55010334  0.09265769    -0.55100
C650        C  0.65892222  0.55052650  0.11334134     0.08900
C651        C  0.72664234  0.49339326  0.14553887    -0.54600
C652        C  0.70660252  0.49300886  0.16639480     0.09500
H653        H  0.64008979  0.45797621  0.03215744     0.14000
H654        H  0.64260107  0.50806505  0.15024896    -0.00300
H655        H  0.68310178  0.57854736  0.07842155     0.14300
H656        H  0.76078576  0.48298002  0.16477585     0.14100
C657        C  0.96814073  0.81515669  0.35047550     0.85900
C658        C  0.95816371  0.76968115  0.35825252    -0.54400
C659        C  0.93491985  0.76801115  0.37554514     0.08800
C660        C  0.92385212  0.81180829  0.38420205     0.19700
C661        C  0.92115804  0.83476590  0.31670333    -0.55100
C662        C  0.89750354  0.83283414  0.33378940     0.08900
C663        C  0.99263551  0.83832774  0.40099406    -0.54600
C664        C  0.96949350  0.83676535  0.41876454     0.09500
H665        H  0.96755864  0.74066798  0.35069652     0.14000
H666        H  0.90518297  0.80960683  0.39848500    -0.00300
H667        H  0.90754345  0.84796836  0.28153527     0.14300
H668        H  0.02464744  0.85585732  0.41993127     0.14100
C669        C  0.81793016  0.52469341  0.46740968     0.85900
C670        C  0.86107775  0.49841510  0.49593464    -0.54400
C671        C  0.88192380  0.49712549  0.47541189     0.08800
C672        C  0.85630548  0.52207942  0.42723602     0.19700
C673        C  0.83407359  0.56826786  0.46369695    -0.55100
C674        C  0.85381835  0.56728762  0.44245540     0.08900
C675        C  0.78753697  0.50529971  0.41500584    -0.54600
C676        C  0.80748222  0.50318018  0.39395455     0.09500
H677        H  0.87172967  0.48534905  0.03031624     0.14000
H678        H  0.87162054  0.52211145  0.40923823    -0.00300
H679        H  0.83036617  0.59763979  0.47709577     0.14300
H680        H  0.75405171  0.49161868  0.39753763     0.14100
C681        C  0.52902455  0.02822362  0.20032733     0.85900
C682        C  0.57749952  0.01279690  0.23652732    -0.54400
C683        C  0.60022058  0.01203898  0.21863363     0.08800
C684        C  0.57190879  0.02638725  0.16528145     0.19700
C685        C  0.53367160  0.07170217  0.18382505    -0.55100
C686        C  0.55682932  0.07082528  0.16635076     0.08900
C687        C  0.50576773  0.99892881  0.15391508    -0.54600
C688        C  0.52832937  0.99813483  0.13552499     0.09500
H689        H  0.59290439  0.00435220  0.27393362     0.14000
H690        H  0.59019709  0.02598537  0.15045911    -0.00300
H691        H  0.52165067  0.10094114  0.18784104     0.14300
H692        H  0.47466239  0.98049292  0.13694828     0.14100
C693        C  0.70241684  0.30595410  0.10216431     0.85900
C694        C  0.69310078  0.26251132  0.11437655    -0.54400
C695        C  0.67266106  0.26480635  0.13479521     0.08800
C696        C  0.66296057  0.31025800  0.14104428     0.19700
C697        C  0.65543442  0.32571996  0.06875219    -0.55100
C698        C  0.63400126  0.32778105  0.08850022     0.08900
C699        C  0.72929744  0.33230156  0.15034258    -0.54600
C700        C  0.70889689  0.33482562  0.17086874     0.09500
H701        H  0.69978623  0.23224912  0.10550700     0.14000
H702        H  0.64782767  0.31094182  0.15923492    -0.00300
H703        H  0.64023728  0.33555388  0.03198795     0.14300
H704        H  0.76122741  0.34872762  0.16598782     0.14100
C705        C  0.92133671  0.01379452  0.33728843     0.85900
C706        C  0.87330422  0.99496755  0.31019001    -0.54400
C707        C  0.85817902  0.99577127  0.33654105     0.08800
C708        C  0.89415051  0.01585863  0.38916837     0.19700
C709        C  0.91913565  0.05881238  0.35288728    -0.55100
C710        C  0.90540044  0.06019322  0.38034764     0.08900
C711        C  0.95131262  0.98994671  0.38531545    -0.54600
C712        C  0.93752935  0.99093104  0.41276505     0.09500
H713        H  0.85213333  0.98524501  0.27166321     0.14000
H714        H  0.88429239  0.01690150  0.41263530    -0.00300
H715        H  0.92548967  0.08759645  0.34126737     0.14300
H716        H  0.98060680  0.97294970  0.39620271     0.14100
C717        C  0.81265886  0.32762059  0.46640293     0.85900
C718        C  0.81330982  0.28086633  0.45361482    -0.54400
C719        C  0.83199118  0.27492895  0.43154159     0.08800
C720        C  0.84750606  0.31682409  0.42307228     0.19700
C721        C  0.86153645  0.34457759  0.49665152    -0.55100
C722        C  0.88071489  0.33828666  0.47497645     0.08900
C723        C  0.78706934  0.34912060  0.41698162    -0.54600
C724        C  0.80526331  0.34408308  0.39436271     0.09500
H725        H  0.80093978  0.25455366  0.46223493     0.14000
H726        H  0.86136611  0.31205064  0.40379373    -0.00300
H727        H  0.87087506  0.35379331  0.03110709     0.14300
H728        H  0.75717635  0.36729978  0.40092348     0.14100
O729        O  0.74619160  0.46302357  0.32262252    -0.75000
O730        O  0.70208208  0.37469435  0.22393017    -0.75100
O731        O  0.74587113  0.37836256  0.32272112    -0.75100
O732        O  0.70188914  0.45963524  0.22326057    -0.75200
O733        O  0.76847089  0.46109885  0.23980504    -0.75100
O734        O  0.81275607  0.37930661  0.33993437    -0.75100
O735        O  0.76879689  0.37652610  0.24077966    -0.75100
O736        O  0.81277270  0.46456976  0.33919985    -0.75100
Ni737      Ni  0.72167335  0.41891362  0.27259365     1.25400
Ni738      Ni  0.79307747  0.42048865  0.29051904     1.25400
C739        C  0.78748135  0.47660566  0.34892571     0.87100
C740        C  0.72768042  0.36263282  0.21459986     0.87100
C741        C  0.78695274  0.36721706  0.34933160     0.87100
C742        C  0.72706104  0.47147478  0.21300043     0.87300
O743        O  0.50357236  0.96471608  0.48646108    -0.75000
O744        O  0.55978485  0.88361694  0.08972035    -0.75100
O745        O  0.52273183  0.88313562  0.49310571    -0.75100
O746        O  0.54248685  0.96632290  0.08514900    -0.75200
O747        O  0.47669301  0.94952496  0.06730130    -0.75100
O748        O  0.95617232  0.86858852  0.97454441    -0.75100
O749        O  0.49376759  0.86697045  0.07148827    -0.75100
O750        O  0.93732463  0.95118505  0.96941670    -0.75100
Ni751      Ni  0.53301572  0.92453650  0.03911520     1.25400
Ni752      Ni  0.96430421  0.91020460  0.02050160     1.25400
C753        C  0.96130235  0.96718462  0.45884210     0.87100
C754        C  0.53666901  0.86324825  0.09871607     0.87100
C755        C  0.98367144  0.86164645  0.46325263     0.87100
C756        C  0.51468460  0.97043868  0.09341195     0.87300
C757        C  0.90008777  0.10138436  0.39692266    -0.05900
C758        C  0.93200563  0.13493757  0.41345361    -0.05800
C759        C  0.92519156  0.17532225  0.42393112    -0.23900
C760        C  0.88615853  0.18306943  0.41785523     0.18300
C761        C  0.85430657  0.14937853  0.40242702     0.15500
C762        C  0.86163180  0.10870784  0.39234518    -0.19000
C763        C  0.81526229  0.15723995  0.39638177    -0.20800
C764        C  0.80776133  0.19807111  0.40525373    -0.13400
C765        C  0.83909493  0.23187357  0.42026738     0.03300
C766        C  0.87835053  0.22400524  0.42661321    -0.25500
H767        H  0.96211846  0.13000167  0.41766744     0.08400
H768        H  0.95012330  0.20065898  0.43602835     0.12000
H769        H  0.83641921  0.08343981  0.37882851     0.11900
H770        H  0.79040456  0.13188293  0.38451051     0.11700
H771        H  0.77708377  0.20327644  0.39981134     0.12200
H772        H  0.90324475  0.24951377  0.43919616     0.14200
C773        C  0.93028736  0.34516564  0.50234974    -0.05900
C774        C  0.96077088  0.34441417  0.55418780    -0.05800
C775        C  0.00253473  0.34481372  0.08413205    -0.23900
C776        C  0.52013912  0.34833959  0.05618324     0.18300
C777        C  0.99242455  0.35406231  0.00943536     0.15500
C778        C  0.94795834  0.34888654  0.47750482    -0.19000
C779        C  0.50959552  0.34601400  0.98064904    -0.20800
C780        C  0.55598799  0.34123305  0.00783566    -0.13400
C781        C  0.58544170  0.33951403  0.05971601     0.03300
C782        C  0.56694714  0.34530732  0.08343893    -0.25500
H783        H  0.94921280  0.34028129  0.57503763     0.08400
H784        H  0.02407142  0.34102668  0.12356095     0.12000
H785        H  0.92545927  0.35018502  0.43777432     0.11900
H786        H  0.48792706  0.34611706  0.94084591     0.11700
H787        H  0.56784813  0.33717609  0.98734054     0.12200
H788        H  0.58829029  0.34628858  0.12309104     0.14200
C789        C  0.72678187  0.30406448  0.08072298    -0.05900
C790        C  0.75697056  0.27158388  0.09341939    -0.05800
C791        C  0.78930282  0.27445852  0.58067815    -0.23900
C792        C  0.77122549  0.29970397  0.04033576     0.18300
C793        C  0.74342037  0.33392114  0.02964279     0.15500
C794        C  0.72212331  0.33636031  0.05049642    -0.19000
C795        C  0.73754596  0.36533081  0.99843123    -0.20800
C796        C  0.75809386  0.36239797  0.97708398    -0.13400
C797        C  0.79414303  0.33382742  0.49356380     0.03300
C798        C  0.80369911  0.30426863  0.52845570    -0.25500
H799        H  0.76442266  0.24789874  0.11940923     0.08400
H800        H  0.81159565  0.24876756  0.59004228     0.12000
H801        H  0.70181662  0.36337510  0.04290591     0.11900
H802        H  0.71711002  0.39233099  0.99057255     0.11700
H803        H  0.75406774  0.38844512  0.95506756     0.12200
H804        H  0.82608920  0.27866004  0.53789564     0.14200
C805        C  0.80941551  0.98579795  0.31267655    -0.05900
C806        C  0.77982207  0.96497832  0.26580237    -0.05800
C807        C  0.73306314  0.96353227  0.23904404    -0.23900
C808        C  0.71456159  0.98214312  0.25864847     0.18300
C809        C  0.74380651  0.99967637  0.30716366     0.15500
C810        C  0.79076076  0.00072320  0.33396401    -0.19000
C811        C  0.72552491  0.01763131  0.32737326    -0.20800
C812        C  0.67883865  0.01999519  0.29911279    -0.13400
C813        C  0.64935671  0.00436520  0.25002048     0.03300
C814        C  0.66749753  0.98454775  0.23033431    -0.25500
H815        H  0.79227967  0.95032274  0.24882165     0.08400
H816        H  0.71130795  0.94872159  0.20244214     0.12000
H817        H  0.81208994  0.01503726  0.37060001     0.11900
H818        H  0.74740437  0.03119648  0.36457388     0.11700
H819        H  0.66593535  0.03587452  0.31511379     0.12200
H820        H  0.64509916  0.97179075  0.19276740     0.14200
C821        C  0.50845987  0.03066943  0.22589098    -0.05900
C822        C  0.52526152  0.06274683  0.26263574    -0.05800
C823        C  0.51154811  0.06435843  0.29095212    -0.23900
C824        C  0.48128713  0.03334155  0.28419890     0.18300
C825        C  0.96454403  0.00716248  0.24859562     0.15500
C826        C  0.47834946  0.99899227  0.21959232    -0.19000
C827        C  0.93862475  0.97380918  0.24670096    -0.20800
C828        C  0.92586372  0.97559408  0.27612123    -0.13400
C829        C  0.93731183  0.01146539  0.30698271     0.03300
C830        C  0.46772452  0.03491976  0.31295528    -0.25500
H831        H  0.55002340  0.08645218  0.27025641     0.08400
H832        H  0.52509522  0.08967510  0.31860657     0.12000
H833        H  0.96897464  0.97746807  0.19648643     0.11900
H834        H  0.92860761  0.94604236  0.22284764     0.11700
H835        H  0.90667671  0.94884997  0.27440440     0.12200
H836        H  0.48203898  0.05982990  0.34114013     0.14200
C837        C  0.65803386  0.22649260  0.14589406    -0.05900
C838        C  0.68797705  0.19360291  0.17192297    -0.05800
C839        C  0.67390735  0.15658169  0.18088130    -0.23900
C840        C  0.62942340  0.15166972  0.16332499     0.18300
C841        C  0.59895468  0.18462539  0.13700766     0.15500
C842        C  0.61359035  0.22203064  0.12877381    -0.19000
C843        C  0.55443455  0.17951147  0.11942914    -0.20800
C844        C  0.54049067  0.14239558  0.12859083    -0.13400
C845        C  0.57064515  0.10964959  0.15488347     0.03300
C846        C  0.61501220  0.11440530  0.17186346    -0.25500
H847        H  0.72239242  0.19669841  0.18548714     0.08400
H848        H  0.69771216  0.13170869  0.20126977     0.12000
H849        H  0.59024705  0.24721563  0.10817552     0.11900
H850        H  0.53053883  0.20429660  0.09892518     0.11700
H851        H  0.50606659  0.13914104  0.11494688     0.12200
H852        H  0.63868435  0.08952839  0.19279597     0.14200
C853        C  0.91856386  0.72742026  0.38127465    -0.05900
C854        C  0.89864110  0.69501179  0.34451917    -0.05800
C855        C  0.88231428  0.65698855  0.34915559    -0.23900
C856        C  0.88607043  0.65048316  0.39093043     0.18300
C857        C  0.90641714  0.68284854  0.42825981     0.15500
C858        C  0.92209815  0.72121902  0.42296165    -0.19000
C859        C  0.91077328  0.67628390  0.47031518    -0.22800
C860        C  0.89444499  0.63844027  0.47504977    -0.13400
C861        C  0.87315869  0.60636194  0.43774715     0.03300
C862        C  0.86960393  0.61240176  0.39592700    -0.25500
H863        H  0.89500959  0.69942937  0.31172000     0.08400
H864        H  0.86672755  0.63270401  0.32005366     0.12000
H865        H  0.93762741  0.74601727  0.45155095     0.11900
H866        H  0.92672807  0.70048162  0.49955254     0.11700
H867        H  0.89862770  0.63423316  0.50819778     0.12200
H868        H  0.85311196  0.58802351  0.36682376     0.14200
C869        C  0.92761969  0.47873918  0.50023592    -0.05900
C870        C  0.95519378  0.47380665  0.05238799    -0.05800
C871        C  0.00048032  0.46449314  0.07733257    -0.23900
C872        C  0.51844210  0.46285059  0.05533041     0.18300
C873        C  0.48892122  0.46311438  0.00347778     0.15500
C874        C  0.94412529  0.47284814  0.47440825    -0.19000
C875        C  0.50978173  0.46850484  0.47687209    -0.20800
C876        C  0.55335020  0.46094293  0.00563865    -0.13400
C877        C  0.58349038  0.46376894  0.05752838     0.03300
C878        C  0.56531475  0.46135854  0.08190578    -0.25500
H879        H  0.94417448  0.47622446  0.07389974     0.08400
H880        H  0.02230091  0.45952851  0.11657100     0.12000
H881        H  0.92216929  0.47602272  0.43496279     0.11900
H882        H  0.48791020  0.47065197  0.43719472     0.11700
H883        H  0.56538420  0.46252466  0.98505403     0.12200
H884        H  0.58747968  0.46139633  0.12167654     0.14200
C885        C  0.71837960  0.50252402  0.06830854    -0.05900
C886        C  0.74388101  0.46672826  0.07725882    -0.05800
C887        C  0.76825995  0.46418213  0.06027216    -0.23900
C888        C  0.76603657  0.49636711  0.03177359     0.18300
C889        C  0.73776707  0.53071580  0.01909737     0.15500
C890        C  0.71423397  0.53363860  0.03730292    -0.19000
C891        C  0.73884885  0.56452005  0.49056090    -0.20800
C892        C  0.76197455  0.56015330  0.47228969    -0.13400
C893        C  0.79301217  0.52773422  0.48818661     0.03300
C894        C  0.79117309  0.49456936  0.01532548    -0.25500
H895        H  0.74599924  0.44101631  0.09872696     0.08400
H896        H  0.78897694  0.43706046  0.06959524     0.12000
H897        H  0.69234464  0.55993219  0.02634780     0.11900
H898        H  0.71614972  0.59045541  0.47833870     0.11700
H899        H  0.75568260  0.58260359  0.44567682     0.12200
H900        H  0.81185766  0.46752302  0.02445548     0.14200
C901        C  0.68858686  0.84915450  0.24583994    -0.05900
C902        C  0.71879615  0.86067946  0.29657254    -0.05800
C903        C  0.76545956  0.86434500  0.32283337    -0.23900
C904        C  0.78357875  0.85654123  0.29940839     0.18300
C905        C  0.75404068  0.84874094  0.24804535     0.15500
C906        C  0.70693066  0.84630025  0.22148825    -0.19000
C907        C  0.77225050  0.84134284  0.22449520    -0.20800
C908        C  0.81899654  0.83850255  0.25201601    -0.13400
C909        C  0.84876308  0.84366349  0.30373381     0.03300
C910        C  0.83062463  0.85468539  0.32678141    -0.25500
H911        H  0.70723244  0.86568865  0.31721431     0.08400
H912        H  0.78754095  0.87152675  0.36208568     0.12000
H913        H  0.68541765  0.84035861  0.18228757     0.11900
H914        H  0.75021166  0.83560453  0.18497942     0.11700
H915        H  0.83140361  0.82990689  0.23279183     0.12200
H916        H  0.85288497  0.86027361  0.36630761     0.14200
C917        C  0.56092298  0.80195156  0.24606316    -0.05900
C918        C  0.56583378  0.76404371  0.26983281    -0.05800
C919        C  0.03521836  0.75340032  0.27754595    -0.23900
C920        C  0.02466771  0.78888493  0.29237559     0.18300
C921        C  0.52852209  0.83357900  0.28137951     0.15500
C922        C  0.54351916  0.83717071  0.25381194    -0.19000
C923        C  0.51029712  0.86813838  0.28818531    -0.20800
C924        C  0.00241335  0.85994006  0.32070276    -0.13400
C925        C  0.99308468  0.81918334  0.32922325     0.03300
C926        C  0.00525601  0.78372202  0.31521889    -0.25500
H927        H  0.58183752  0.73698591  0.26854297     0.08400
H928        H  0.02931102  0.72159542  0.28428692     0.12000
H929        H  0.54126169  0.86733019  0.23799240     0.11900
H930        H  0.50806834  0.89860668  0.27290608     0.11700
H931        H  0.47930276  0.89064575  0.31774335     0.12200
H932        H  0.99922760  0.75171221  0.32064998     0.14200
C933        C  0.63833174  0.58857982  0.11626512    -0.05900
C934        C  0.60003355  0.58382593  0.11314030    -0.05800
C935        C  0.58288864  0.61873156  0.12052015    -0.23900
C936        C  0.60369799  0.65914467  0.13110542     0.18300
C937        C  0.64074204  0.66464235  0.13181238     0.15500
C938        C  0.65764684  0.62946427  0.12409373    -0.19000
C939        C  0.66143224  0.70500935  0.14213924    -0.20800
C940        C  0.64695989  0.73918960  0.15388543    -0.13400
C941        C  0.61120198  0.73405500  0.15508795     0.03300
C942        C  0.58894264  0.69385961  0.14236659    -0.25500
H943        H  0.58335034  0.55301270  0.10532902     0.08400
H944        H  0.55398844  0.61393216  0.11901022     0.12000
H945        H  0.68712601  0.63371996  0.12657880     0.11900
H946        H  0.68976613  0.70988491  0.14267555     0.11700
H947        H  0.66527276  0.76925874  0.16395094     0.12200
H948        H  0.56064145  0.68931528  0.14192988     0.14200
C949        C  0.57842214  0.81162376  0.71837122     0.85900
C950        C  0.58697899  0.76972033  0.70277083    -0.54400
C951        C  0.60468705  0.77502356  0.67946453     0.08800
C952        C  0.61263746  0.82199232  0.67430551     0.19700
C953        C  0.62519235  0.83521057  0.75040507    -0.55100
C954        C  0.64430379  0.84023551  0.72817927     0.08900
C955        C  0.54901388  0.83663390  0.67131659    -0.54600
C956        C  0.56646166  0.84216209  0.64796804     0.09500
H957        H  0.58163665  0.73859669  0.71154874     0.14000
H958        H  0.62475651  0.82587627  0.65327395    -0.00300
H959        H  0.64256879  0.84382837  0.78855871     0.14300
H960        H  0.51695405  0.84928830  0.65780391     0.14100
C961        C  0.70060977  0.51246031  0.59480719     0.85900
C962        C  0.65748112  0.48353645  0.56653787    -0.54400
C963        C  0.63500768  0.48445335  0.58502962     0.08800
C964        C  0.65987197  0.51269847  0.63231501     0.19700
C965        C  0.68501568  0.55676723  0.59682567    -0.55100
C966        C  0.66335587  0.55672912  0.61624294     0.08900
C967        C  0.72998173  0.49859383  0.64829279    -0.54600
C968        C  0.70874017  0.49761706  0.66774026     0.09500
H969        H  0.64456573  0.46625332  0.53279885     0.14000
H970        H  0.64364554  0.51323062  0.64938526    -0.00300
H971        H  0.69028677  0.58554132  0.58424878     0.14300
H972        H  0.76422951  0.48813046  0.66842969     0.14100
C973        C  0.97225867  0.81684460  0.85769511     0.85900
C974        C  0.96335813  0.77122468  0.86584259    -0.54400
C975        C  0.93981039  0.76874265  0.88276373     0.08800
C976        C  0.92802082  0.81223326  0.89130620     0.19700
C977        C  0.92513827  0.83623050  0.82405254    -0.55100
C978        C  0.90158649  0.83376647  0.84135648     0.08900
C979        C  0.99651365  0.83976907  0.90832326    -0.54600
C980        C  0.97292872  0.83795780  0.92547188     0.09500
H981        H  0.97491024  0.74304084  0.85941014     0.14000
H982        H  0.90961022  0.80943062  0.90579455    -0.00300
H983        H  0.91184253  0.85029727  0.78939348     0.14300
H984        H  0.02842006  0.85755775  0.92784690     0.14100
C985        C  0.81458221  0.52567423  0.96684227     0.85900
C986        C  0.85830381  0.50017872  0.99610474    -0.54400
C987        C  0.87985371  0.49987335  0.97637667     0.08800
C988        C  0.85434261  0.52494779  0.92830366     0.19700
C989        C  0.83027704  0.56985255  0.96372640    -0.55100
C990        C  0.85093417  0.56981600  0.94341713     0.08900
C991        C  0.78515451  0.50652219  0.91447641    -0.54600
C992        C  0.80575680  0.50547311  0.89421071     0.09500
H993        H  0.87471855  0.48373269  0.53024884     0.14000
H994        H  0.87008332  0.52555444  0.91082971    -0.00300
H995        H  0.82569740  0.59877011  0.97693380     0.14300
H996        H  0.75172995  0.49230730  0.89634448     0.14100
C997        C  0.52966100  0.03096163  0.69924346     0.85900
C998        C  0.57774061  0.01417131  0.73725049    -0.54400
C999        C  0.60216893  0.01245313  0.72112486     0.08800
C1000       C  0.57627538  0.02796719  0.66842745     0.19700
C1001       C  0.53841030  0.07456493  0.68633462    -0.55100
C1002       C  0.56281604  0.07305052  0.67035511     0.08900
C1003       C  0.50762887  0.00264188  0.65269698    -0.54600
C1004       C  0.53176589  0.00109848  0.63631140     0.09500
H1005       H  0.59167175  0.00572157  0.77419436     0.14000
H1006       H  0.59582953  0.02686805  0.65513764    -0.00300
H1007       H  0.52947158  0.10465607  0.69267476     0.14300
H1008       H  0.47604288  0.98466970  0.63494580     0.14100
C1009       C  0.71061868  0.30777898  0.60691519     0.85900
C1010       C  0.70272403  0.26419897  0.62029121    -0.54400
C1011       C  0.68113277  0.26596125  0.63946085     0.08800
C1012       C  0.66906657  0.31120756  0.64333046     0.19700
C1013       C  0.66285495  0.32555379  0.57159855    -0.55100
C1014       C  0.64062268  0.32750138  0.59031625     0.08900
C1015       C  0.73541137  0.33547025  0.65392593    -0.54600
C1016       C  0.71383821  0.33750784  0.67312153     0.09500
H1017       H  0.71066350  0.23414223  0.61252573     0.14000
H1018       H  0.65282966  0.31183914  0.66034314    -0.00300
H1019       H  0.64805719  0.33501485  0.53476838     0.14300
H1020       H  0.76679529  0.35310702  0.66972687     0.14100
C1021       C  0.92372182  0.01287881  0.83813129     0.85900
C1022       C  0.87557198  0.99395128  0.81077921    -0.54400
C1023       C  0.85941326  0.99694164  0.83617716     0.08800
C1024       C  0.89463689  0.01820745  0.88806014     0.19700
C1025       C  0.92218823  0.05878797  0.85283958    -0.55100
C1026       C  0.90660867  0.06154266  0.87845869     0.08900
C1027       C  0.95301740  0.99064778  0.88753641    -0.54600
C1028       C  0.93784724  0.99303467  0.91350727     0.09500
H1029       H  0.85564594  0.98162977  0.77320865     0.14000
H1030       H  0.88436374  0.02080095  0.91102810    -0.00300
H1031       H  0.93260670  0.08692195  0.84442657     0.14300
H1032       H  0.98312976  0.97383840  0.90083581     0.14100
C1033       C  0.80564025  0.32325857  0.96069317     0.85900
C1034       C  0.80791149  0.27758771  0.94643275    -0.54400
C1035       C  0.82912545  0.27468115  0.92675433     0.08800
C1036       C  0.84554738  0.31796931  0.92217682     0.19700
C1037       C  0.85472739  0.34080811  0.99444890    -0.55100
C1038       C  0.87638538  0.33755900  0.97514380     0.08900
C1039       C  0.78214682  0.34682566  0.91258015    -0.54600
C1040       C  0.80301654  0.34482282  0.89260109     0.09500
H1041       H  0.79436888  0.24982534  0.95177334     0.14000
H1042       H  0.86158154  0.31505369  0.90499601    -0.00300
H1043       H  0.87934231  0.35946491  0.53286025     0.14300
H1044       H  0.75136261  0.36387735  0.89520597     0.14100
O1045       O  0.74528441  0.46556571  0.82201422    -0.75000
O1046       O  0.70370105  0.37796365  0.72320430    -0.75100
O1047       O  0.74511281  0.38078120  0.82132722    -0.75100
O1048       O  0.70257199  0.46306589  0.72304707    -0.75200
O1049       O  0.76988862  0.46507336  0.74131469    -0.75100
O1050       O  0.81304713  0.38269608  0.84108547    -0.75100
O1051       O  0.77153048  0.38046522  0.74267746    -0.75100
O1052       O  0.81257788  0.46807422  0.84023672    -0.75100
Ni1053     Ni  0.72179468  0.42182803  0.77177985     1.25400
Ni1054     Ni  0.79415598  0.42425237  0.79196780     1.25400
C1055       C  0.78655547  0.47945934  0.84912637     0.87100
C1056       C  0.73058135  0.36607004  0.71558177     0.87100
C1057       C  0.78624584  0.36966848  0.84884603     0.87100
C1058       C  0.72837710  0.47541755  0.71384260     0.87300
O1059       O  0.50163037  0.96368560  0.98660177    -0.75000
O1060       O  0.56517479  0.88654982  0.59227939    -0.75100
O1061       O  0.51903610  0.88178436  0.99200674    -0.75100
O1062       O  0.54618789  0.96907152  0.58584619    -0.75200
O1063       O  0.48109862  0.95136870  0.56920345    -0.75100
O1064       O  0.95590473  0.86507215  0.47181288    -0.75100
O1065       O  0.49960488  0.86930266  0.57478727    -0.75100
O1066       O  0.93840682  0.94765391  0.46866890    -0.75100
Ni1067     Ni  0.53674111  0.92654067  0.54012474     1.25400
Ni1068     Ni  0.96558036  0.90627286  0.51918608     1.25400
C1069       C  0.96069031  0.97065551  0.96011573     0.87100
C1070       C  0.54262421  0.86657357  0.60232722     0.87100
C1071       C  0.98493647  0.86480401  0.96747306     0.87100
C1072       C  0.51864296  0.97300161  0.59454334     0.87300
C1073       C  0.90030789  0.10280282  0.89361590    -0.05900
C1074       C  0.93623001  0.13300878  0.92167868    -0.05800
C1075       C  0.92964429  0.17278964  0.93398672    -0.23900
C1076       C  0.88674972  0.18321292  0.91761215     0.18300
C1077       C  0.85046068  0.15282444  0.88939924     0.15500
C1078       C  0.85757278  0.11276318  0.87789198    -0.19000
C1079       C  0.80753608  0.16310447  0.87283306    -0.20800
C1080       C  0.80068826  0.20288856  0.88463386    -0.13400
C1081       C  0.83642337  0.23329740  0.91266018     0.03300
C1082       C  0.87941068  0.22342721  0.92878416    -0.25500
H1083       H  0.96941325  0.12572954  0.93407535     0.08400
H1084       H  0.95792237  0.19551200  0.95583057     0.12000
H1085       H  0.82961574  0.08983735  0.85547987     0.11900
H1086       H  0.77932338  0.14030360  0.85097410     0.11700
H1087       H  0.76729580  0.21005512  0.87168166     0.12200
H1088       H  0.90721386  0.24667267  0.95082500     0.14200
C1089       C  0.92624440  0.34601961  0.00494169    -0.05900
C1090       C  0.95569915  0.34284912  0.05657479    -0.05800
C1091       C  0.00720072  0.34671301  0.58048155    -0.23900
C1092       C  0.52808059  0.35231883  0.55793998     0.18300
C1093       C  0.99498844  0.34944373  0.50393366     0.15500
C1094       C  0.94524763  0.35332333  0.98195922    -0.19000
C1095       C  0.51629062  0.34357104  0.48195783    -0.20800
C1096       C  0.56258709  0.33827052  0.50903462    -0.13400
C1097       C  0.59241016  0.33975463  0.56099254     0.03300
C1098       C  0.57475793  0.34938900  0.58483287    -0.25500
H1099       H  0.94292398  0.33673202  0.07594529     0.08400
H1100       H  0.02953199  0.34528683  0.62025719     0.12000
H1101       H  0.92358406  0.35719035  0.94259209     0.11900
H1102       H  0.49415424  0.34107656  0.44213378     0.11700
H1103       H  0.57420706  0.33105666  0.48874059     0.12200
H1104       H  0.59676241  0.35308251  0.62446241     0.14200
C1105       C  0.73608209  0.30726348  0.58694511    -0.05900
C1106       C  0.76629124  0.27500038  0.59923205    -0.05800
C1107       C  0.77844030  0.26914227  0.07302812    -0.23900
C1108       C  0.78292781  0.30629391  0.54966588     0.18300
C1109       C  0.75466189  0.34005007  0.53892494     0.15500
C1110       C  0.73251110  0.34102839  0.55877578    -0.19000
C1111       C  0.74858270  0.37190386  0.50795622    -0.20800
C1112       C  0.76843184  0.36905782  0.48581908    -0.13400
C1113       C  0.78375276  0.32706916  0.98482807     0.03300
C1114       C  0.79159619  0.29673139  0.01845889    -0.25500
H1115       H  0.77296019  0.25019986  0.62380749     0.08400
H1116       H  0.80064331  0.24324295  0.08280204     0.12000
H1117       H  0.71183457  0.36765182  0.55143976     0.11900
H1118       H  0.72766006  0.39850180  0.49994258     0.11700
H1119       H  0.76333512  0.39456747  0.46267706     0.12200
H1120       H  0.81340553  0.27068037  0.02753964     0.14200
C1121       C  0.81080142  0.98668381  0.81313005    -0.05900
C1122       C  0.78116240  0.96434452  0.76733514    -0.05800
C1123       C  0.73453833  0.96153976  0.74181888    -0.23900
C1124       C  0.71625197  0.98046717  0.76160296     0.18300
C1125       C  0.74566691  0.99978044  0.80913614     0.15500
C1126       C  0.79243551  0.00244854  0.83459558    -0.19000
C1127       C  0.72765049  0.01828454  0.82948264    -0.20800
C1128       C  0.68089737  0.02003114  0.80182613    -0.13400
C1129       C  0.65115634  0.00325875  0.75327837     0.03300
C1130       C  0.66915300  0.98220043  0.73396142    -0.25500
H1131       H  0.79343385  0.94971486  0.75014272     0.08400
H1132       H  0.71263712  0.94562382  0.70585058     0.12000
H1133       H  0.81347877  0.01912888  0.86983691     0.11900
H1134       H  0.74972247  0.03305632  0.86606809     0.11700
H1135       H  0.66809314  0.03669563  0.81752042     0.12200
H1136       H  0.64654722  0.96857402  0.69678108     0.14200
C1137       C  0.50177807  0.03144113  0.71697641    -0.05900
C1138       C  0.47481126  0.06593512  0.70824951    -0.05800
C1139       C  0.45164505  0.06709622  0.72681453    -0.23900
C1140       C  0.45404146  0.03358548  0.75410265     0.18300
C1141       C  0.97722054  0.99967498  0.75967146     0.15500
C1142       C  0.50127436  0.99631282  0.74134614    -0.19000
C1143       C  0.97650198  0.96537351  0.78420892    -0.20800
C1144       C  0.95772038  0.96924181  0.80758516    -0.13400
C1145       C  0.94037032  0.00803517  0.80844548     0.03300
C1146       C  0.43341287  0.03603694  0.77585530    -0.25500
H1147       H  0.47072290  0.09225671  0.68655847     0.08400
H1148       H  0.43221260  0.09459889  0.72025517     0.12000
H1149       H  0.01518835  0.96838915  0.74193275     0.11900
H1150       H  0.99076349  0.93558544  0.78560483     0.11700
H1151       H  0.95767988  0.94196468  0.82595983     0.12200
H1152       H  0.41475958  0.06390510  0.77004234     0.14200
C1153       C  0.66669757  0.22727062  0.65054049    -0.05900
C1154       C  0.69512295  0.19267349  0.67286839    -0.05800
C1155       C  0.68060867  0.15558179  0.68138425    -0.23900
C1156       C  0.63719081  0.15229530  0.66716947     0.18300
C1157       C  0.60846403  0.18701433  0.64478477     0.15500
C1158       C  0.62347850  0.22427829  0.63688294    -0.19000
C1159       C  0.56502501  0.18380342  0.63034772    -0.20800
C1160       C  0.55017808  0.14666595  0.63824912    -0.13400
C1161       C  0.57837943  0.11193117  0.66058206     0.03300
C1162       C  0.62195931  0.11496789  0.67488939    -0.25500
H1163       H  0.72868590  0.19442954  0.68391758     0.08400
H1164       H  0.70319473  0.12939425  0.69875764     0.12000
H1165       H  0.60103937  0.25052812  0.61889392     0.11900
H1166       H  0.54250724  0.21004061  0.61293928     0.11700
H1167       H  0.51637428  0.14498745  0.62652779     0.12200
H1168       H  0.64435400  0.08871232  0.69291458     0.14200
C1169       C  0.92409159  0.72781295  0.88879135    -0.05900
C1170       C  0.90785521  0.69406830  0.85416836    -0.05800
C1171       C  0.89068399  0.65630011  0.85809643    -0.23900
C1172       C  0.88965289  0.65145978  0.89689550     0.18300
C1173       C  0.90651165  0.68499922  0.93228410     0.15500
C1174       C  0.92340813  0.72295568  0.92789318    -0.19000
C1175       C  0.90601476  0.68007456  0.97138210    -0.22800
C1176       C  0.88847612  0.64256917  0.97512288    -0.13400
C1177       C  0.87062480  0.60923212  0.93959660     0.03300
C1178       C  0.87173155  0.61387462  0.90069364    -0.25500
H1179       H  0.90739623  0.69729045  0.82327583     0.08400
H1180       H  0.87789185  0.63100528  0.83056266     0.12000
H1181       H  0.93628830  0.74859427  0.95509894     0.11900
H1182       H  0.91922130  0.70525540  0.99914315     0.11700
H1183       H  0.88932666  0.63961451  0.00628528     0.12200
H1184       H  0.85778856  0.58876184  0.87273307     0.14200
C1185       C  0.92596990  0.48232090  0.00166533    -0.05900
C1186       C  0.95709353  0.47102848  0.55114918    -0.05800
C1187       C  0.00226321  0.46159122  0.57600796    -0.23900
C1188       C  0.52078569  0.46461485  0.55260288     0.18300
C1189       C  0.49159818  0.46789004  0.50099888     0.15500
C1190       C  0.94291908  0.47777472  0.97618605    -0.19000
C1191       C  0.50662361  0.45996100  0.97898369    -0.20800
C1192       C  0.55660781  0.47035534  0.50399651    -0.13400
C1193       C  0.58634683  0.47040711  0.55587812     0.03300
C1194       C  0.56780108  0.46445905  0.57952423    -0.25500
H1195       H  0.94651834  0.47446274  0.57297535     0.08400
H1196       H  0.02431114  0.45757312  0.61543617     0.12000
H1197       H  0.92126099  0.48137729  0.93686021     0.11900
H1198       H  0.48446769  0.45973954  0.93914561     0.11700
H1199       H  0.56912338  0.47487641  0.48411391     0.12200
H1200       H  0.58983240  0.46264717  0.61919864     0.14200
C1201       C  0.72489749  0.50902098  0.57334851    -0.05900
C1202       C  0.75108123  0.47336074  0.58379637    -0.05800
C1203       C  0.77604103  0.47021784  0.56762184    -0.23900
C1204       C  0.77306538  0.50106324  0.53750814     0.18300
C1205       C  0.74435673  0.53533794  0.52350711     0.15500
C1206       C  0.72088168  0.53941183  0.54179388    -0.19000
C1207       C  0.73319917  0.56153399  0.98805516    -0.20800
C1208       C  0.75755226  0.55917513  0.97112873    -0.13400
C1209       C  0.78860840  0.52694777  0.98634951     0.03300
C1210       C  0.79736594  0.49755047  0.52014874    -0.25500
H1211       H  0.75302577  0.44798388  0.60547763     0.08400
H1212       H  0.79721531  0.44322356  0.57814784     0.12000
H1213       H  0.69876722  0.56566051  0.53020158     0.11900
H1214       H  0.71064026  0.58747300  0.97667965     0.11700
H1215       H  0.75212997  0.58297216  0.94609794     0.12200
H1216       H  0.81831214  0.47050415  0.53047569     0.14200
C1217       C  0.69382460  0.85235247  0.75622755    -0.05900
C1218       C  0.72418335  0.85856816  0.80805919    -0.05800
C1219       C  0.77100888  0.86144138  0.83473344    -0.23900
C1220       C  0.78903571  0.85745328  0.81063366     0.18300
C1221       C  0.75942825  0.85417750  0.75883518     0.15500
C1222       C  0.71242057  0.85312154  0.73213899    -0.19000
C1223       C  0.77728585  0.84997480  0.73454340    -0.20800
C1224       C  0.82367234  0.84565242  0.76128825    -0.13400
C1225       C  0.85354455  0.84638258  0.81309409     0.03300
C1226       C  0.83591791  0.85470535  0.83740948    -0.25500
H1227       H  0.71259838  0.85970212  0.82903334     0.08400
H1228       H  0.79317599  0.86469390  0.87452696     0.12000
H1229       H  0.69095372  0.85109118  0.69250434     0.11900
H1230       H  0.75506732  0.84777995  0.69467283     0.11700
H1231       H  0.83555382  0.83943430  0.74105247     0.12200
H1232       H  0.85818991  0.85745608  0.87716615     0.14200
C1233       C  0.55595903  0.80599979  0.74182435    -0.05900
C1234       C  0.52308448  0.77305176  0.72461894    -0.05800
C1235       C  0.00800293  0.75795102  0.75279148    -0.23900
C1236       C  0.01296194  0.79063905  0.78349303     0.18300
C1237       C  0.53978371  0.83217358  0.79498880     0.15500
C1238       C  0.56283970  0.83634694  0.77611217    -0.19000
C1239       C  0.54698245  0.86212070  0.82927722    -0.20800
C1240       C  0.02201214  0.85692237  0.84347330    -0.13400
C1241       C  0.99685772  0.81980920  0.83607546     0.03300
C1242       C  0.99182960  0.78713395  0.80468658    -0.25500
H1243       H  0.51444745  0.75064750  0.69602689     0.08400
H1244       H  0.98803264  0.72934928  0.74520399     0.12000
H1245       H  0.58543567  0.86369544  0.78760459     0.11900
H1246       H  0.56995181  0.88928994  0.84123543     0.11700
H1247       H  0.52981342  0.88266042  0.87296210     0.12200
H1248       H  0.97061021  0.75920868  0.79547333     0.14200
C1249       C  0.64382122  0.59491761  0.62061069    -0.05900
C1250       C  0.60320632  0.59095427  0.61302990    -0.05800
C1251       C  0.58634433  0.62573477  0.62105129    -0.23900
C1252       C  0.60990972  0.66516859  0.63703368     0.18300
C1253       C  0.64995861  0.66987462  0.64315236     0.15500
C1254       C  0.66647827  0.63485418  0.63456766    -0.19000
C1255       C  0.67352748  0.70926103  0.65909412    -0.20800
C1256       C  0.65821497  0.74338497  0.66995302    -0.13400
C1257       C  0.61897582  0.73897591  0.66500584     0.03300
C1258       C  0.59463155  0.69971666  0.64791557    -0.25500
H1259       H  0.58446356  0.56080361  0.60107181     0.08400
H1260       H  0.55530916  0.62158197  0.61557557     0.12000
H1261       H  0.69788038  0.63829517  0.64070158     0.11900
H1262       H  0.70432246  0.71347886  0.66409785     0.11700
H1263       H  0.67805743  0.77285659  0.68370868     0.12200
H1264       H  0.56401892  0.69596591  0.64335831     0.14200
loop_ 
_geom_bond_atom_site_label_1 
_geom_bond_atom_site_label_2 
_geom_bond_distance 
_geom_bond_site_symmetry_2 
_ccdc_geom_bond_type 
C1            C2   1.545       .  S
C1            C7   1.535       .  S
C1            C5   1.541       .  S
C1          C285   1.548       .  S
C2            H9   1.077       .  S
C2            C3   1.369       .  D
C3            C4   1.541       .  S
C3          C309   1.499       .  S
C4            C8   1.537       .  S
C4            C6   1.552       .  S
C4           H10   1.104       .  S
C5           H11   1.082       .  S
C5            C6   1.379       .  D
C6          C269   1.513       .  S
C7           H12   1.086       .  S
C7            C8   1.364       .  D
C8          C122   1.476       .  S
C13          C14   1.541       .  S
C13          C19   1.534       .  S
C13          C17   1.548       .  S
C13         C253   1.534       .  S
C14          H21   1.085       .  S
C14          C15   1.373       .  D
C15          C16   1.542       .  S
C15         C245   1.499       .  S
C16          C20   1.541       .  S
C16          C18   1.540       .  S
C16          H22   1.106       .  S
C17          H23   1.080       .  S
C17          C18   1.371       .  D
C18         C301   1.492       .  S
C19          H24   1.086       .  S
C19          C20   1.362       .  D
C20         C110   1.481       .  S
C25          C26   1.546       .  S
C25          C31   1.540       .  S
C25          C29   1.540       .  S
C25         C293   1.543       .  S
C26          H33   1.082       .  S
C26          C27   1.366       .  D
C27          C28   1.540       .  S
C27         C221   1.487       .  S
C28          C32   1.542       .  S
C28          C30   1.544       .  S
C28          H34   1.110       .  S
C29          H35   1.085       .  S
C29          C30   1.368       .  D
C30         C277   1.494       .  S
C31          H36   1.086       .  S
C31          C32   1.373       .  D
C32         C123   1.488       .  S
C37          C38   1.549       .  S
C37          C43   1.529       .  S
C37          C41   1.537       .  S
C37         C261   1.534       .  S
C38         H361   1.080       .  S
C38          C39   1.376       .  D
C39          C40   1.549       .  S
C39         C237   1.508       .  S
C40          C44   1.541       .  S
C40          C42   1.541       .  S
C40          H46   1.105       .  S
C41          H47   1.086       .  S
C41          C42   1.366       .  D
C42         C229   1.489       .  S
C43          H48   1.087       .  S
C43          C44   1.365       .  D
C44         C107   1.478       .  S
H45         C354   1.083   1_554  S
C49          C50   1.538       .  S
C49          C55   1.549       .  S
C49          C53   1.542       .  S
C49         C189   1.532       .  S
C50          H57   1.086       .  S
C50          C51   1.364       .  D
C51          C52   1.535       .  S
C51         C181   1.488       .  S
C52          C56   1.538       .  S
C52          C54   1.535       .  S
C52          H58   1.110       .  S
C53          H59   1.086       .  S
C53          C54   1.365       .  D
C54         C213   1.481       .  S
C55          H60   1.084   1_445  S
C55          C56   1.373       .  D
C56         C124   1.483   1_545  S
C61          C62   1.537       .  S
C61          C67   1.523       .  S
C61          C65   1.551       .  S
C61         C157   1.528       .  S
C62          H69   1.086       .  S
C62          C63   1.362       .  D
C63          C64   1.535       .  S
C63         C205   1.476       .  S
C64          C68   1.541       .  S
C64          C66   1.549       .  S
C64          H70   1.105       .  S
C65          H71   1.079       .  S
C65          C66   1.379       .  D
C66         C149   1.514       .  S
C67          H72   1.087       .  S
C67          C68   1.360       .  D
C68         C108   1.471       .  S
C73          C74   1.541   1_545  S
C73          C79   1.529   1_545  S
C73          C77   1.540       .  S
C73         C197   1.534       .  S
C74          H81   1.082       .  S
C74          C75   1.375       .  D
C75          C76   1.556   1_565  S
C75         C173   1.511       .  S
C76          C80   1.545   1_545  S
C76          C78   1.546       .  S
C76          H82   1.107       .  S
C77          H83   1.086       .  S
C77          C78   1.364       .  D
C78         C125   1.487       .  S
C79          H84   1.087       .  S
C79          C80   1.365       .  D
C80         C121   1.482       .  S
C85          C86   1.540       .  S
C85          C91   1.529       .  S
C85          C89   1.534       .  S
C85         C165   1.532       .  S
C86          H93   1.085       .  S
C86          C87   1.368       .  D
C87          C88   1.544       .  S
C87         C133   1.491       .  S
C88          C92   1.545       .  S
C88          C90   1.552       .  S
C88          H94   1.106       .  S
C89         H411   1.083       .  S
C89          C90   1.375       .  D
C90         C141   1.505       .  S
C91          H96   1.084       .  S
C91          C92   1.361       .  D
C92         C109   1.478       .  S
H95         C405   1.084   1_554  S
O97        Ni105   1.913       .  S
O97         C107   1.281       .  A
O98        Ni105   1.913       .  S
O98         C108   1.278       .  A
O99        Ni105   1.909       .  S
O99         C109   1.282       .  A
O100       Ni105   1.916       .  S
O100        C110   1.280       .  A
O101       Ni106   1.923       .  S
O101        C110   1.284       .  A
O102       Ni106   1.927       .  S
O102        C109   1.280       .  A
O103       Ni106   1.911       .  S
O103        C108   1.282       .  A
O104       Ni106   1.921       .  S
O104        C107   1.281       .  A
Ni105      Ni106   2.389       .  S
O111       Ni435   1.926       .  S
O111        C753   1.284   1_455  A
O112       Ni119   1.915       .  S
O112        C122   1.280       .  A
O113       Ni435   1.926       .  S
O113        C755   1.282   1_455  A
O114       Ni119   1.917       .  S
O114        C124   1.281       .  A
O115       Ni752   1.927       .  S
O115        C124   1.282   1_655  A
O116       Ni120   1.930   1_556  S
O116        C439   1.283       .  A
O117       Ni752   1.921       .  S
O117        C122   1.282   1_655  A
O118       Ni120   1.933   1_556  S
O118        C437   1.283       .  A
Ni119       O427   1.914   1_554  S
Ni119       O429   1.914   1_554  S
Ni119      Ni752   2.389   1_455  S
Ni120       O747   1.925       .  S
Ni120       O749   1.926       .  S
Ni120      Ni751   2.388       .  S
C121        O743   1.284       .  A
C121        O434   1.281       .  A
C123        O745   1.281       .  A
C123        O432   1.284       .  A
C125        C126   1.407       .  A
C125        C130   1.402       .  A
C126        C127   1.400       .  A
C126        H135   1.083       .  S
C127        C128   1.403       .  A
C127        H136   1.084       .  S
C128        C134   1.410       .  A
C128        C129   1.415       .  A
C129        C131   1.400       .  A
C129        C130   1.406       .  A
C130        H137   1.081       .  S
C131        C132   1.396       .  A
C131        H138   1.084       .  S
C132        C133   1.406       .  A
C132        H139   1.083       .  S
C133        C134   1.408       .  A
C134        H140   1.084       .  S
C141        C142   1.413       .  A
C141        C146   1.412       .  A
C142        C459   1.395       .  A
C142        H151   1.079       .  S
C143        C458   1.396       .  A
C143        C776   1.399       .  A
C143        H152   1.084       .  S
C144        C150   1.408       .  A
C144        C775   1.401       .  A
C144        C777   1.409   1_455  A
C145        C776   1.409       .  A
C145        C779   1.400   1_554  A
C145        C462   1.408   1_554  A
C146        C461   1.407       .  A
C146        H153   1.080       .  S
C147        C148   1.400   1_556  A
C147        C777   1.399   1_456  A
C147        H154   1.083   1_455  S
C148        C149   1.413       .  A
C148        H155   1.078   1_554  S
C149        C150   1.414       .  A
C150        H156   1.078       .  S
C157        C158   1.411       .  A
C157        C162   1.409       .  A
C158        C475   1.398       .  A
C158        H167   1.083       .  S
C159        C474   1.395       .  A
C159        C476   1.399       .  A
C159        H168   1.083       .  S
C160        C161   1.412       .  A
C160        C475   1.400       .  A
C160        C482   1.408       .  A
C161        C163   1.397   1_554  A
C161        C162   1.405       .  A
C162        H169   1.080       .  S
C163        C164   1.394       .  A
C163        H170   1.083       .  S
C164        C481   1.414       .  A
C164        H171   1.079       .  S
C165        C166   1.409       .  A
C165        C480   1.413       .  A
C166        C476   1.404       .  A
C166        H172   1.082       .  S
C173        C174   1.414       .  A
C173        C178   1.410   1_565  A
C174        C175   1.401       .  A
C174        H183   1.080       .  S
C175        C176   1.400       .  A
C175        H184   1.084       .  S
C176        C182   1.409       .  A
C176        C177   1.412   1_565  A
C177        C179   1.402       .  A
C177        C178   1.406       .  A
C178        H185   1.078       .  S
C179        C180   1.396       .  A
C179        H186   1.084       .  S
C180        C181   1.405       .  A
C180        H187   1.083       .  S
C181        C182   1.408   1_545  A
C182        H188   1.085       .  S
C189        C190   1.412       .  A
C189        C194   1.413   1_455  A
C190        C191   1.395       .  A
C190        H199   1.082       .  S
C191        C192   1.398   1_455  A
C191        H200   1.084       .  S
C192        C198   1.405       .  A
C192        C825   1.412       .  A
C193        C195   1.404   1_545  A
C193        C824   1.411       .  A
C193        C826   1.412   1_545  A
C194        C825   1.411       .  A
C194        H833   1.081   1_545  S
C195        C196   1.402       .  A
C195        H202   1.084       .  S
C196        C197   1.412   1_565  A
C196        H203   1.082       .  S
C197        C830   1.410       .  A
C198        C829   1.411       .  A
C198        H204   1.081       .  S
H201        C826   1.081       .  S
C205        C206   1.403       .  A
C205        C210   1.403       .  A
C206        C207   1.396       .  A
C206        H215   1.083       .  S
C207        C208   1.402       .  A
C207        H216   1.084       .  S
C208        C214   1.401       .  A
C208        C209   1.415       .  A
C209        C211   1.402       .  A
C209        C210   1.403       .  A
C210        H217   1.085       .  S
C211        C212   1.398       .  A
C211        H218   1.084       .  S
C212        C213   1.405       .  A
C212        H219   1.083       .  S
C213        C214   1.404       .  A
C214        H220   1.084       .  S
C221        C222   1.407       .  A
C221        C226   1.403       .  A
C222        C223   1.400       .  A
C222        H231   1.083       .  S
C223        C224   1.403       .  A
C223        H232   1.084       .  S
C224        C230   1.408       .  A
C224        C225   1.415       .  A
C225        C227   1.400       .  A
C225        C226   1.405       .  A
C226        H233   1.085       .  S
C227        C228   1.396       .  A
C227        H234   1.084       .  S
C228        C229   1.407       .  A
C228        H235   1.083       .  S
C229        C230   1.407       .  A
C230        H236   1.084       .  S
C237        C242   1.412       .  A
C237        C554   1.412       .  A
C238        C239   1.399       .  A
C238        C553   1.411       .  A
C238        H247   1.080       .  S
C239        C872   1.401       .  A
C239        H248   1.083       .  S
C240        C246   1.409       .  A
C240        C241   1.410   1_455  A
C240        C871   1.402       .  A
C241        C559   1.400   1_654  A
C241       C1190   1.405   1_554  A
C242       C1189   1.407       .  A
C242        H249   1.081       .  S
C243        C557   1.402   1_455  A
C243        C560   1.400       .  A
C243        H250   1.084   1_455  S
C244        C245   1.409       .  A
C244        C559   1.396   1_554  A
C244        H251   1.081   1_554  S
C245        C246   1.411       .  A
C246        H252   1.083       .  S
C253        C254   1.411       .  A
C253        C258   1.413       .  A
C254        C255   1.398       .  A
C254        H263   1.083       .  S
C255        C256   1.400       .  A
C255        H264   1.083       .  S
C256        C262   1.408       .  A
C256        C257   1.411       .  A
C257        C258   1.407       .  A
C257        C575   1.400   1_554  A
C258        H265   1.079       .  S
C259        C260   1.399       .  A
C259        C573   1.400       .  A
C259        H266   1.084       .  S
C260        C261   1.411       .  A
C260        H267   1.083       .  S
C261        C578   1.412       .  A
C262        C577   1.412   1_554  A
C262        H268   1.083       .  S
C269        C270   1.413       .  A
C269        C274   1.412       .  A
C270        C271   1.402       .  A
C270        H279   1.079       .  S
C271        C272   1.401       .  A
C271        H280   1.083       .  S
C272        C278   1.410       .  A
C272        C273   1.411       .  A
C273        C275   1.400       .  A
C273        C274   1.405       .  A
C274        H281   1.076       .  S
C275        C276   1.395       .  A
C275        H282   1.084       .  S
C276        C277   1.409       .  A
C276        H283   1.082       .  S
C277        C278   1.409       .  A
C278        H284   1.084       .  S
C285        C286   1.415       .  A
C285        C290   1.417       .  A
C286        C919   1.397       .  A
C286        H295   1.075       .  S
C287        C288   1.400       .  A
C287        C918   1.398       .  A
C287        H296   1.084       .  S
C288        C294   1.408       .  A
C288        C921   1.410       .  A
C289        C291   1.405       .  A
C289        C290   1.416       .  A
C289        C920   1.409       .  A
C290        H297   1.084       .  S
C291        C924   1.406       .  A
C291        H298   1.083       .  S
C292        C293   1.412       .  A
C292        C923   1.404       .  A
C292        H931   1.083       .  S
C293        C294   1.414       .  A
C294        H300   1.079       .  S
H299        C924   1.083   1_655  S
C301        C302   1.408       .  A
C301        C306   1.409       .  A
C302        C303   1.395       .  A
C302        H311   1.081       .  S
C303        C304   1.400       .  A
C303        H312   1.084       .  S
C304        C310   1.402       .  A
C304        C305   1.411       .  A
C305        C307   1.401       .  A
C305        C306   1.406       .  A
C306        H313   1.083       .  S
C307        C308   1.400       .  A
C307        H314   1.084       .  S
C308        C309   1.407       .  A
C308        H315   1.076       .  S
C309        C310   1.410       .  A
C310        H316   1.083       .  S
C317        C318   1.547       .  S
C317        C323   1.533       .  S
C317        C321   1.543       .  S
C317        C601   1.546       .  S
C318        H325   1.083       .  S
C318        C319   1.370       .  D
C319        C320   1.540       .  S
C319        C625   1.494       .  S
C320        C324   1.540       .  S
C320        C322   1.553       .  S
C320        H326   1.103       .  S
C321        H327   1.082       .  S
C321        C322   1.378       .  D
C322        C585   1.515       .  S
C323        H328   1.086       .  S
C323        C324   1.366       .  D
C324        C438   1.489       .  S
C329        C330   1.543       .  S
C329        C335   1.535       .  S
C329        C333   1.549       .  S
C329        C569   1.534       .  S
C330        H337   1.085       .  S
C330        C331   1.373       .  D
C331        C332   1.544       .  S
C331        C561   1.502       .  S
C332        C336   1.540       .  S
C332        C334   1.538       .  S
C332        H338   1.107       .  S
C333        H339   1.083       .  S
C333        C334   1.371       .  D
C334        C617   1.488       .  S
C335        H340   1.085       .  S
C335        C336   1.358       .  D
C336        C426   1.477       .  S
C341        C342   1.541       .  S
C341        C347   1.543       .  S
C341        C345   1.539       .  S
C341        C609   1.538       .  S
C342        H349   1.086       .  S
C342        C343   1.367       .  D
C343        C344   1.541       .  S
C343        C537   1.485       .  S
C344        C348   1.534       .  S
C344        C346   1.545       .  S
C344        H350   1.108       .  S
C345        H351   1.085       .  S
C345        C346   1.372       .  D
C346        C593   1.497       .  S
C347        H352   1.083       .  S
C347        C348   1.366       .  D
C348        C439   1.480       .  S
C353        C354   1.548       .  S
C353        C359   1.528       .  S
C353        C357   1.539       .  S
C353        C577   1.531       .  S
C354        C355   1.375       .  D
C355        C356   1.547       .  S
C355        C553   1.504   1_556  S
C356        C360   1.547       .  S
C356        C358   1.543       .  S
C356        H362   1.106       .  S
C357        H363   1.085       .  S
C357        C358   1.366       .  D
C358        C545   1.492       .  S
C359        H364   1.087       .  S
C359        C360   1.363       .  D
C360        C423   1.483       .  S
C365        C366   1.547       .  S
C365        C371   1.542       .  S
C365        C369   1.545       .  S
C365        C505   1.545   1_455  S
C366        H373   1.086       .  S
C366        C367   1.372       .  D
C367        C368   1.539       .  S
C367        C497   1.491       .  S
C368        C372   1.541   1_545  S
C368        C370   1.539       .  S
C368        H374   1.109       .  S
C369        H375   1.081       .  S
C369        C370   1.364       .  D
C370        C529   1.489       .  S
C371        H376   1.086   1_445  S
C371        C372   1.372   1_545  D
C372        C440   1.489       .  S
C377        C378   1.543       .  S
C377        C383   1.527       .  S
C377        C381   1.547       .  S
C377        C473   1.529       .  S
C378        H385   1.085       .  S
C378        C379   1.364       .  D
C379        C380   1.535       .  S
C379        C521   1.484       .  S
C380        C384   1.534       .  S
C380        C382   1.550       .  S
C380        H386   1.104       .  S
C381        H387   1.082       .  S
C381        C382   1.376       .  D
C382        C465   1.505       .  S
C383        H388   1.087       .  S
C383        C384   1.364       .  D
C384        C424   1.474       .  S
C389        C390   1.542   1_545  S
C389        C395   1.538   1_545  S
C389        C393   1.543       .  S
C389        C513   1.547       .  S
C390        H397   1.084       .  S
C390        C391   1.380       .  D
C391        C392   1.552   1_565  S
C391        C489   1.515       .  S
C392        C396   1.541   1_545  S
C392        C394   1.544       .  S
C392        H398   1.106       .  S
C393        H399   1.084       .  S
C393        C394   1.366       .  D
C394        C441   1.488       .  S
C395        H400   1.086       .  S
C395        C396   1.365       .  D
C396        C437   1.484       .  S
C401        C402   1.541       .  S
C401        C407   1.531       .  S
C401        C405   1.536       .  S
C401        C481   1.534       .  S
C402        H409   1.086       .  S
C402        C403   1.372       .  D
C403        C404   1.545       .  S
C403        C449   1.491       .  S
C404        C408   1.541       .  S
C404        C406   1.548       .  S
C404        H410   1.106       .  S
C405        C406   1.374       .  D
C406        C457   1.502   1_556  S
C407        H412   1.082       .  S
C407        C408   1.359       .  D
C408        C425   1.477       .  S
O413       Ni421   1.925       .  S
O413        C423   1.285       .  A
O414       Ni421   1.923       .  S
O414        C424   1.282       .  A
O415       Ni421   1.903       .  S
O415        C425   1.281       .  A
O416       Ni421   1.909       .  S
O416        C426   1.277       .  A
O417       Ni422   1.922       .  S
O417        C426   1.285       .  A
O418       Ni422   1.929       .  S
O418        C425   1.281       .  A
O419       Ni422   1.906       .  S
O419        C424   1.279       .  A
O420       Ni422   1.918       .  S
O420        C423   1.279       .  A
Ni421      Ni422   2.389       .  S
O427       C1069   1.281   1_455  A
O428       Ni435   1.934       .  S
O428        C438   1.284       .  A
O429       C1071   1.280   1_455  A
O430       Ni435   1.928       .  S
O430        C440   1.283       .  A
O431      Ni1068   1.927       .  S
O431        C440   1.283   1_655  A
O432       Ni436   1.932       .  S
O433      Ni1068   1.924       .  S
O433        C438   1.282   1_655  A
O434       Ni436   1.926       .  S
Ni435     Ni1068   2.386   1_455  S
Ni436      O1063   1.924       .  S
Ni436      O1065   1.921       .  S
Ni436     Ni1067   2.387       .  S
C437       O1059   1.282       .  A
C439       O1061   1.280       .  A
C441        C442   1.406       .  A
C441        C446   1.404       .  A
C442        C443   1.401       .  A
C442        H451   1.083       .  S
C443        C444   1.404       .  A
C443        H452   1.083       .  S
C444        C450   1.410       .  A
C444        C445   1.414       .  A
C445        C447   1.401       .  A
C445        C446   1.406       .  A
C446        H453   1.080       .  S
C447        C448   1.397       .  A
C447        H454   1.084       .  S
C448        C449   1.406       .  A
C448        H455   1.083       .  S
C449        C450   1.409       .  A
C450        H456   1.084       .  S
C457        C458   1.411       .  A
C457        C462   1.411   1_554  A
C458        H467   1.079       .  S
C459       C1092   1.397       .  A
C459        H468   1.084       .  S
C460       C1091   1.396       .  A
C460        C466   1.399       .  A
C460       C1093   1.410   1_455  A
C461       C1092   1.409       .  A
C461       C1095   1.401       .  A
C462        H469   1.081       .  S
C463       C1093   1.402   1_455  A
C463        C464   1.403       .  A
C463        H470   1.083   1_455  S
C464        C465   1.413       .  A
C464        H471   1.080       .  S
C465        C466   1.407       .  A
C466        H472   1.078       .  S
C473        C474   1.411       .  A
C473        C478   1.412       .  A
C474        H483   1.081       .  S
C475        H484   1.083       .  S
C476        C477   1.411       .  A
C477        C479   1.400       .  A
C477        C478   1.407       .  A
C478        H485   1.083       .  S
C479        C480   1.398       .  A
C479        H486   1.083       .  S
C480        H487   1.081       .  S
C481        C482   1.410   1_556  A
C482        H488   1.083       .  S
C489        C490   1.412       .  A
C489        C494   1.415   1_565  A
C490        C491   1.402       .  A
C490        H499   1.080       .  S
C491        C492   1.402       .  A
C491        H500   1.084       .  S
C492        C498   1.410       .  A
C492        C493   1.410       .  A
C493        C495   1.404   1_565  A
C493        C494   1.407   1_565  A
C494        H501   1.077       .  S
C495        C496   1.399       .  A
C495        H502   1.084       .  S
C496        C497   1.405       .  A
C496        H503   1.083       .  S
C497        C498   1.409   1_545  A
C498        H504   1.085       .  S
C505        C506   1.415       .  A
C505        C510   1.415   1_545  A
C506        C507   1.397       .  A
C506        H515   1.077       .  S
C507        C508   1.398       .  A
C507        H516   1.084       .  S
C508        C514   1.409       .  A
C508       C1141   1.411   1_545  A
C509       C1140   1.410   1_565  A
C509        C511   1.402       .  A
C509       C1142   1.415       .  A
C510       C1141   1.415       .  A
C510       H1149   1.084   1_655  S
C511        C512   1.404       .  A
C511        H518   1.081       .  S
C512        C513   1.413   1_565  A
C512        H519   1.082       .  S
C513       C1146   1.415       .  A
C514       C1145   1.412       .  A
C514        H520   1.081       .  S
H517       C1142   1.084       .  S
C521        C522   1.405       .  A
C521        C526   1.405       .  A
C522        C523   1.398       .  A
C522        H531   1.083       .  S
C523        C524   1.403       .  A
C523        H532   1.083       .  S
C524        C530   1.406       .  A
C524        C525   1.414       .  A
C525        C527   1.401       .  A
C525        C526   1.404       .  A
C526        H533   1.084       .  S
C527        C528   1.397       .  A
C527        H534   1.084       .  S
C528        C529   1.408       .  A
C528        H535   1.083       .  S
C529        C530   1.406       .  A
C530        H536   1.084       .  S
C537        C538   1.405       .  A
C537        C542   1.405       .  A
C538        C539   1.398       .  A
C538        H547   1.083       .  S
C539        C540   1.402       .  A
C539        H548   1.084       .  S
C540        C546   1.407       .  A
C540        C541   1.415       .  A
C541        C543   1.400       .  A
C541        C542   1.406       .  A
C542        H549   1.085       .  S
C543        C544   1.397       .  A
C543        H550   1.084   1_556  S
C544        C545   1.409       .  A
C544        H551   1.082   1_556  S
C545        C546   1.406       .  A
C546        H552   1.084       .  S
C553        C558   1.410   1_554  A
C554        C555   1.399       .  A
C554        H563   1.079       .  S
C555       C1188   1.400       .  A
C555        H564   1.084       .  S
C556       C1187   1.400       .  A
C556        C562   1.408       .  A
C556        C557   1.410   1_455  A
C557        C874   1.408       .  A
C558        C873   1.407   1_556  A
C558        H565   1.081       .  S
C559        H566   1.084   1_455  S
C560        C561   1.410       .  A
C560        H567   1.081       .  S
C561        C562   1.410       .  A
C562        H568   1.082       .  S
C569        C570   1.412       .  A
C569        C574   1.412       .  A
C570        C571   1.396       .  A
C570        H579   1.082       .  S
C571        C572   1.399       .  A
C571        H580   1.084       .  S
C572        C578   1.408       .  A
C572        C573   1.412       .  A
C573        C574   1.409       .  A
C574        H581   1.081       .  S
C575        C576   1.397       .  A
C575        H582   1.084       .  S
C576        C577   1.411       .  A
C576        H583   1.082       .  S
C578        H584   1.080       .  S
C585        C586   1.415       .  A
C585        C590   1.413       .  A
C586        C587   1.400       .  A
C586        H595   1.079       .  S
C587        C588   1.400       .  A
C587        H596   1.083       .  S
C588        C594   1.407       .  A
C588        C589   1.409       .  A
C589        C591   1.402       .  A
C589        C590   1.405       .  A
C590        H597   1.077       .  S
C591        C592   1.398       .  A
C591        H598   1.084       .  S
C592        C593   1.408       .  A
C592        H599   1.081       .  S
C593        C594   1.410       .  A
C594        H600   1.083       .  S
C601        C602   1.413       .  A
C601        C606   1.417       .  A
C602       C1235   1.402       .  A
C602        H611   1.079       .  S
C603       C1234   1.399       .  A
C603        C604   1.401       .  A
C603        H612   1.084       .  S
C604        C610   1.409       .  A
C604       C1237   1.411       .  A
C605       C1236   1.409       .  A
C605        C607   1.404       .  A
C605        C606   1.414       .  A
C606        H613   1.084       .  S
C607       C1240   1.404       .  A
C607        H614   1.083       .  S
C608       C1239   1.399       .  A
C608        C609   1.412       .  A
C608       H1247   1.079       .  S
C609        C610   1.412       .  A
C610        H616   1.083       .  S
H615       C1240   1.082       .  S
C617        C618   1.407       .  A
C617        C622   1.406       .  A
C618        C619   1.396       .  A
C618        H627   1.082       .  S
C619        C620   1.401       .  A
C619        H628   1.084       .  S
C620        C626   1.406       .  A
C620        C621   1.414       .  A
C621        C623   1.401       .  A
C621        C622   1.407       .  A
C622        H629   1.084       .  S
C623        C624   1.398       .  A
C623        H630   1.084       .  S
C624        C625   1.407       .  A
C624        H631   1.079       .  S
C625        C626   1.407       .  A
C626        H632   1.084       .  S
C633        C634   1.547       .  S
C633        C639   1.535       .  S
C633        C637   1.540       .  S
C633        C917   1.543       .  S
C634        H641   1.081       .  S
C634        C635   1.369       .  D
C635        C636   1.541       .  S
C635        C941   1.493       .  S
C636        C640   1.542       .  S
C636        C638   1.551       .  S
C636        H642   1.104       .  S
C637        H643   1.081       .  S
C637        C638   1.378       .  D
C638        C901   1.520       .  S
C639        H644   1.086       .  S
C639        C640   1.364       .  D
C640        C754   1.480       .  S
C645        C646   1.542       .  S
C645        C651   1.533       .  S
C645        C649   1.548       .  S
C645        C885   1.532       .  S
C646        H653   1.085       .  S
C646        C647   1.374       .  D
C647        C648   1.543       .  S
C647        C877   1.502       .  S
C648        C652   1.539       .  S
C648        C650   1.536       .  S
C648        H654   1.106       .  S
C649        H655   1.082       .  S
C649        C650   1.369       .  D
C650        C933   1.488       .  S
C651        H656   1.086       .  S
C651        C652   1.360       .  D
C652        C742   1.477       .  S
C657        C658   1.547       .  S
C657        C663   1.547       .  S
C657        C661   1.545       .  S
C657        C925   1.550       .  S
C658        H665   1.080       .  S
C658        C659   1.364       .  D
C659        C660   1.535       .  S
C659        C853   1.484       .  S
C660        C664   1.541       .  S
C660        C662   1.545       .  S
C660        H666   1.108       .  S
C661        H667   1.085       .  S
C661        C662   1.373       .  D
C662        C909   1.502       .  S
C663        H668   1.086   1_655  S
C663        C664   1.375       .  D
C664        C755   1.494       .  S
C669        C670   1.549       .  S
C669        C675   1.531       .  S
C669        C673   1.535       .  S
C669        C893   1.534       .  S
C670        H993   1.080       .  S
C670        C671   1.379       .  D
C671        C672   1.551       .  S
C671        C869   1.511       .  S
C672        C676   1.543       .  S
C672        C674   1.541       .  S
C672        H678   1.105       .  S
C673        H679   1.086       .  S
C673        C674   1.363       .  D
C674        C861   1.488       .  S
C675        H680   1.087       .  S
C675        C676   1.365       .  D
C676        C739   1.482       .  S
H677        C986   1.081   1_554  S
C681        C682   1.536       .  S
C681        C687   1.547   1_545  S
C681        C685   1.544       .  S
C681        C821   1.531       .  S
C682        H689   1.086       .  S
C682        C683   1.363       .  D
C683        C684   1.536       .  S
C683        C813   1.487       .  S
C684        C688   1.540   1_545  S
C684        C686   1.535       .  S
C684        H690   1.110       .  S
C685        H691   1.086       .  S
C685        C686   1.366       .  D
C686        C845   1.482       .  S
C687        H692   1.084       .  S
C687        C688   1.373       .  D
C688        C756   1.482       .  S
C693        C694   1.540       .  S
C693        C699   1.528       .  S
C693        C697   1.547       .  S
C693        C789   1.532       .  S
C694        H701   1.085       .  S
C694        C695   1.363       .  D
C695        C696   1.535       .  S
C695        C837   1.478       .  S
C696        C700   1.542       .  S
C696        C698   1.549       .  S
C696        H702   1.105       .  S
C697        H703   1.081       .  S
C697        C698   1.376       .  D
C698        C781   1.508       .  S
C699        H704   1.087       .  S
C699        C700   1.365       .  D
C700        C740   1.479       .  S
C705        C706   1.537   1_545  S
C705        C711   1.530   1_545  S
C705        C709   1.538       .  S
C705        C829   1.534       .  S
C706        H713   1.083       .  S
C706        C707   1.373       .  D
C707        C708   1.556   1_565  S
C707        C805   1.509       .  S
C708        C712   1.547   1_545  S
C708        C710   1.545       .  S
C708        H714   1.107       .  S
C709        H715   1.084       .  S
C709        C710   1.365       .  D
C710        C757   1.486       .  S
C711        H716   1.087       .  S
C711        C712   1.366       .  D
C712        C753   1.483       .  S
C717        C718   1.540       .  S
C717        C723   1.528       .  S
C717        C721   1.530       .  S
C717        C797   1.525       .  S
C718        H725   1.085       .  S
C718        C719   1.366       .  D
C719        C720   1.545       .  S
C719        C765   1.487       .  S
C720        C724   1.544       .  S
C720        C722   1.547       .  S
C720        H726   1.108       .  S
C721       H1043   1.085       .  S
C721        C722   1.372       .  D
C722        C773   1.497       .  S
C723        H728   1.084       .  S
C723        C724   1.363       .  D
C724        C741   1.474       .  S
H727       C1037   1.085   1_554  S
O729       Ni737   1.922       .  S
O729        C739   1.283       .  A
O730       Ni737   1.924       .  S
O730        C740   1.281       .  A
O731       Ni737   1.905       .  S
O731        C741   1.281       .  A
O732       Ni737   1.912       .  S
O732        C742   1.279       .  A
O733       Ni738   1.918       .  S
O733        C742   1.283       .  A
O734       Ni738   1.925       .  S
O734        C741   1.280       .  A
O735       Ni738   1.914       .  S
O735        C740   1.282       .  A
O736       Ni738   1.920       .  S
O736        C739   1.280       .  A
Ni737      Ni738   2.389       .  S
O743      Ni1067   1.923       .  S
O744       Ni751   1.917       .  S
O744        C754   1.279       .  A
O745      Ni1067   1.919       .  S
O746       Ni751   1.916       .  S
O746        C756   1.281       .  A
O747        C756   1.282       .  A
O748       Ni752   1.930   1_556  S
O748       C1071   1.285       .  A
O749        C754   1.284       .  A
O750       Ni752   1.928   1_556  S
O750       C1069   1.282       .  A
Ni751      O1059   1.917   1_554  S
Ni751      O1061   1.907   1_554  S
C753       O1066   1.280       .  A
C755       O1064   1.285       .  A
C757        C758   1.407       .  A
C757        C762   1.404       .  A
C758        C759   1.396       .  A
C758        H767   1.083       .  S
C759        C760   1.400       .  A
C759        H768   1.084       .  S
C760        C766   1.404       .  A
C760        C761   1.415       .  A
C761        C763   1.402       .  A
C761        C762   1.406       .  A
C762        H769   1.081       .  S
C763        C764   1.398       .  A
C763        H770   1.084       .  S
C764        C765   1.408       .  A
C764        H771   1.083       .  S
C765        C766   1.404       .  A
C766        H772   1.084       .  S
C773        C774   1.410       .  A
C773        C778   1.412       .  A
C774       C1091   1.390   1_655  A
C774        H783   1.080       .  S
C775       C1090   1.397   1_455  A
C775        H784   1.083       .  S
C776        C782   1.405       .  A
C777       C1094   1.409   1_554  A
C778       C1093   1.410       .  A
C778        H785   1.082       .  S
C779        C780   1.399   1_556  A
C779        H786   1.083       .  S
C780        C781   1.413       .  A
C780        H787   1.078   1_554  S
C781        C782   1.411       .  A
C782        H788   1.079       .  S
C789        C790   1.412       .  A
C789        C794   1.411       .  A
C790       C1107   1.398       .  A
C790        H799   1.081       .  S
C791       C1106   1.394       .  A
C791       C1108   1.398       .  A
C791        H800   1.083       .  S
C792       C1107   1.400       .  A
C792       C1114   1.408       .  A
C792        C793   1.411       .  A
C793        C795   1.399   1_554  A
C793        C794   1.407       .  A
C794        H801   1.083       .  S
C795        C796   1.397       .  A
C795        H802   1.083       .  S
C796       C1113   1.413       .  A
C796        H803   1.080       .  S
C797       C1112   1.411       .  A
C797        C798   1.407       .  A
C798       C1108   1.399       .  A
C798        H804   1.083       .  S
C805        C806   1.415       .  A
C805        C810   1.409   1_565  A
C806        C807   1.399       .  A
C806        H815   1.080       .  S
C807        C808   1.399       .  A
C807        H816   1.084       .  S
C808        C814   1.407       .  A
C808        C809   1.413       .  A
C809        C811   1.401   1_565  A
C809        C810   1.405   1_565  A
C810        H817   1.079       .  S
C811        C812   1.395       .  A
C811        H818   1.084       .  S
C812        C813   1.407       .  A
C812        H819   1.083       .  S
C813        C814   1.406   1_545  A
C814        H820   1.085       .  S
C821        C822   1.411       .  A
C821        C826   1.414   1_545  A
C822        C823   1.393       .  A
C822        H831   1.083       .  S
C823        C824   1.398       .  A
C823        H832   1.083       .  S
C824        C830   1.403       .  A
C825        C827   1.402   1_545  A
C827        C828   1.401       .  A
C827        H834   1.084       .  S
C828        C829   1.411   1_565  A
C828        H835   1.082       .  S
C830        H836   1.082       .  S
C837        C838   1.403       .  A
C837        C842   1.405       .  A
C838        C839   1.396       .  A
C838        H847   1.083       .  S
C839        C840   1.402       .  A
C839        H848   1.084       .  S
C840        C846   1.402       .  A
C840        C841   1.415       .  A
C841        C843   1.404       .  A
C841        C842   1.405       .  A
C842        H849   1.084       .  S
C843        C844   1.399       .  A
C843        H850   1.084       .  S
C844        C845   1.404       .  A
C844        H851   1.083       .  S
C845        C846   1.404       .  A
C846        H852   1.084       .  S
C853        C854   1.406       .  A
C853        C858   1.402       .  A
C854        C855   1.398       .  A
C854        H863   1.083       .  S
C855        C856   1.402       .  A
C855        H864   1.084       .  S
C856        C862   1.408       .  A
C856        C857   1.416       .  A
C857        C859   1.399       .  A
C857        C858   1.405       .  A
C858        H865   1.085       .  S
C859        C860   1.395       .  A
C859        H866   1.084       .  S
C860        C861   1.408       .  A
C860        H867   1.083       .  S
C861        C862   1.406       .  A
C862        H868   1.084       .  S
C869       C1186   1.413       .  A
C869        C874   1.413       .  A
C870       C1185   1.413       .  A
C870        C871   1.402   1_655  A
C870        H879   1.080       .  S
C871        H880   1.084       .  S
C872        C878   1.407       .  A
C872        C873   1.410       .  A
C873       C1191   1.401   1_554  A
C874        H881   1.081       .  S
C875       C1189   1.401       .  A
C875       C1192   1.399       .  A
C875        H882   1.084       .  S
C876       C1191   1.398   1_554  A
C876        C877   1.410       .  A
C876        H883   1.080   1_554  S
C877        C878   1.411       .  A
C878        H884   1.082       .  S
C885        C886   1.411       .  A
C885        C890   1.410       .  A
C886        C887   1.398       .  A
C886        H895   1.083       .  S
C887        C888   1.400       .  A
C887        H896   1.083       .  S
C888        C894   1.408       .  A
C888        C889   1.412       .  A
C889       C1207   1.399   1_554  A
C889        C890   1.405       .  A
C890        H897   1.080       .  S
C891       C1205   1.399       .  A
C891        C892   1.397       .  A
C891        H898   1.083       .  S
C892        C893   1.412       .  A
C892        H899   1.082       .  S
C893       C1210   1.411       .  A
C894       C1209   1.411   1_554  A
C894        H900   1.082       .  S
C901        C902   1.414       .  A
C901        C906   1.417       .  A
C902        C903   1.400       .  A
C902        H911   1.078       .  S
C903        C904   1.399       .  A
C903        H912   1.084       .  S
C904        C910   1.409       .  A
C904        C905   1.409       .  A
C905        C907   1.404       .  A
C905        C906   1.412       .  A
C906        H913   1.077       .  S
C907        C908   1.402       .  A
C907        H914   1.084       .  S
C908        C909   1.410       .  A
C908        H915   1.082       .  S
C909        C910   1.409       .  A
C910        H916   1.083       .  S
C917        C918   1.412       .  A
C917        C922   1.417       .  A
C918        H927   1.078       .  S
C919        C920   1.400       .  A
C919        H928   1.084       .  S
C920        C926   1.410       .  A
C921        C923   1.404       .  A
C921        C922   1.413       .  A
C922        H929   1.084       .  S
C923        H930   1.084       .  S
C924        C925   1.411   1_455  A
C925        C926   1.418   1_655  A
C926        H932   1.076   1_455  S
C933        C934   1.407       .  A
C933        C938   1.405       .  A
C934        C935   1.397       .  A
C934        H943   1.082       .  S
C935        C936   1.401       .  A
C935        H944   1.084       .  S
C936        C942   1.405       .  A
C936        C937   1.413       .  A
C937        C939   1.399       .  A
C937        C938   1.404       .  A
C938        H945   1.083       .  S
C939        C940   1.395       .  A
C939        H946   1.083       .  S
C940        C941   1.406       .  A
C940        H947   1.078       .  S
C941        C942   1.409       .  A
C942        H948   1.083       .  S
C949        C950   1.543       .  S
C949        C955   1.527       .  S
C949        C953   1.547       .  S
C949       C1233   1.536       .  S
C950        H957   1.085       .  S
C950        C951   1.368       .  D
C951        C952   1.540       .  S
C951       C1257   1.489       .  S
C952        C956   1.542       .  S
C952        C954   1.555       .  S
C952        H958   1.104       .  S
C953        H959   1.080       .  S
C953        C954   1.380       .  D
C954       C1217   1.519       .  S
C955        H960   1.087       .  S
C955        C956   1.362       .  D
C956       C1070   1.484       .  S
C961        C962   1.542       .  S
C961        C967   1.533       .  S
C961        C965   1.549       .  S
C961       C1201   1.533       .  S
C962        H969   1.085       .  S
C962        C963   1.373       .  D
C963        C964   1.543       .  S
C963       C1193   1.501       .  S
C964        C968   1.542       .  S
C964        C966   1.539       .  S
C964        H970   1.107       .  S
C965        H971   1.083       .  S
C965        C966   1.372       .  D
C966       C1249   1.488       .  S
C967        H972   1.086       .  S
C967        C968   1.358       .  D
C968       C1058   1.479       .  S
C973        C974   1.542       .  S
C973        C979   1.548       .  S
C973        C977   1.545       .  S
C973       C1241   1.547       .  S
C974        H981   1.084       .  S
C974        C975   1.364       .  D
C975        C976   1.537       .  S
C975       C1169   1.485       .  S
C976        C980   1.534       .  S
C976        C978   1.540       .  S
C976        H982   1.107       .  S
C977        H983   1.085       .  S
C977        C978   1.376       .  D
C978       C1225   1.502       .  S
C979        H984   1.085   1_655  S
C979        C980   1.372       .  D
C980       C1071   1.484       .  S
C985        C986   1.550       .  S
C985        C991   1.528       .  S
C985        C989   1.537       .  S
C985       C1209   1.530       .  S
C986        C987   1.378       .  D
C987        C988   1.551       .  S
C987       C1185   1.511   1_556  S
C988        C992   1.543       .  S
C988        C990   1.541       .  S
C988        H994   1.103       .  S
C989        H995   1.085       .  S
C989        C990   1.364       .  D
C990       C1177   1.491       .  S
C991        H996   1.087       .  S
C991        C992   1.362       .  D
C992       C1055   1.480       .  S
C997        C998   1.548       .  S
C997       C1003   1.538       .  S
C997       C1001   1.547       .  S
C997       C1137   1.545       .  S
C998       H1005   1.086       .  S
C998        C999   1.372       .  D
C999       C1000   1.539       .  S
C999       C1129   1.492       .  S
C1000      C1004   1.540       .  S
C1000      C1002   1.537       .  S
C1000      H1006   1.110       .  S
C1001      H1007   1.083       .  S
C1001      C1002   1.367       .  D
C1002      C1161   1.488       .  S
C1003      H1008   1.086   1_545  S
C1003      C1004   1.369       .  D
C1004      C1072   1.486   1_545  S
C1009      C1010   1.542       .  S
C1009      C1015   1.527       .  S
C1009      C1013   1.544       .  S
C1009      C1105   1.525       .  S
C1010      H1017   1.084       .  S
C1010      C1011   1.363       .  D
C1011      C1012   1.539       .  S
C1011      C1153   1.484       .  S
C1012      C1016   1.538       .  S
C1012      C1014   1.548       .  S
C1012      H1018   1.106       .  S
C1013      H1019   1.083       .  S
C1013      C1014   1.372       .  D
C1014      C1097   1.500       .  S
C1015      H1020   1.087       .  S
C1015      C1016   1.364       .  D
C1016      C1056   1.476       .  S
C1021      C1022   1.541   1_545  S
C1021      C1027   1.535   1_545  S
C1021      C1025   1.545       .  S
C1021      C1145   1.541       .  S
C1022      H1029   1.083       .  S
C1022      C1023   1.378       .  D
C1023      C1024   1.551   1_565  S
C1023      C1121   1.512       .  S
C1024      C1028   1.538   1_545  S
C1024      C1026   1.539       .  S
C1024      H1030   1.105       .  S
C1025      H1031   1.084       .  S
C1025      C1026   1.366       .  D
C1026      C1073   1.481       .  S
C1027      H1032   1.086       .  S
C1027      C1028   1.363       .  D
C1028      C1069   1.478       .  S
C1033      C1034   1.540       .  S
C1033      C1039   1.533       .  S
C1033      C1037   1.536       .  S
C1033      C1113   1.534       .  S
C1034      H1041   1.086       .  S
C1034      C1035   1.368       .  D
C1035      C1036   1.542       .  S
C1035      C1081   1.483       .  S
C1036      C1040   1.544       .  S
C1036      C1038   1.547       .  S
C1036      H1042   1.108       .  S
C1037      C1038   1.373       .  D
C1038      C1089   1.501   1_556  S
C1039      H1044   1.084       .  S
C1039      C1040   1.363       .  D
C1040      C1057   1.480       .  S
O1045     Ni1053   1.923       .  S
O1045      C1055   1.284       .  A
O1046     Ni1053   1.926       .  S
O1046      C1056   1.282       .  A
O1047     Ni1053   1.906       .  S
O1047      C1057   1.281       .  A
O1048     Ni1053   1.913       .  S
O1048      C1058   1.278       .  A
O1049     Ni1054   1.922       .  S
O1049      C1058   1.285       .  A
O1050     Ni1054   1.931       .  S
O1050      C1057   1.282       .  A
O1051     Ni1054   1.908       .  S
O1051      C1056   1.280       .  A
O1052     Ni1054   1.915       .  S
O1052      C1055   1.279       .  A
Ni1053    Ni1054   2.389       .  S
O1060     Ni1067   1.928       .  S
O1060      C1070   1.281       .  A
O1062     Ni1067   1.924       .  S
O1062      C1072   1.282       .  A
O1063      C1072   1.283       .  A
O1064     Ni1068   1.935       .  S
O1065      C1070   1.283       .  A
O1066     Ni1068   1.925       .  S
C1073      C1074   1.404       .  A
C1073      C1078   1.403       .  A
C1074      C1075   1.400       .  A
C1074      H1083   1.083       .  S
C1075      C1076   1.404       .  A
C1075      H1084   1.083       .  S
C1076      C1082   1.408       .  A
C1076      C1077   1.415       .  A
C1077      C1079   1.402       .  A
C1077      C1078   1.405       .  A
C1078      H1085   1.082       .  S
C1079      C1080   1.397       .  A
C1079      H1086   1.084       .  S
C1080      C1081   1.404       .  A
C1080      H1087   1.083       .  S
C1081      C1082   1.406       .  A
C1082      H1088   1.085       .  S
C1089      C1090   1.410       .  A
C1089      C1094   1.410   1_554  A
C1090      H1099   1.081       .  S
C1091      H1100   1.084       .  S
C1092      C1098   1.403       .  A
C1094      H1101   1.082       .  S
C1095      C1096   1.399       .  A
C1095      H1102   1.083       .  S
C1096      C1097   1.411       .  A
C1096      H1103   1.080       .  S
C1097      C1098   1.408       .  A
C1098      H1104   1.080       .  S
C1105      C1106   1.410       .  A
C1105      C1110   1.411       .  A
C1106      H1115   1.080       .  S
C1107      H1116   1.083       .  S
C1108      C1109   1.410       .  A
C1109      C1111   1.401       .  A
C1109      C1110   1.403       .  A
C1110      H1117   1.083       .  S
C1111      C1112   1.398       .  A
C1111      H1118   1.083       .  S
C1112      H1119   1.080       .  S
C1113      C1114   1.411   1_556  A
C1114      H1120   1.082       .  S
C1121      C1122   1.412       .  A
C1121      C1126   1.414   1_565  A
C1122      C1123   1.402       .  A
C1122      H1131   1.080       .  S
C1123      C1124   1.401       .  A
C1123      H1132   1.084       .  S
C1124      C1130   1.410       .  A
C1124      C1125   1.410       .  A
C1125      C1127   1.403   1_565  A
C1125      C1126   1.407   1_565  A
C1126      H1133   1.077       .  S
C1127      C1128   1.398       .  A
C1127      H1134   1.084       .  S
C1128      C1129   1.405       .  A
C1128      H1135   1.083       .  S
C1129      C1130   1.409   1_545  A
C1130      H1136   1.085       .  S
C1137      C1138   1.414       .  A
C1137      C1142   1.415   1_545  A
C1138      C1139   1.400       .  A
C1138      H1147   1.079       .  S
C1139      C1140   1.401       .  A
C1139      H1148   1.083       .  S
C1140      C1146   1.412       .  A
C1141      C1143   1.402       .  A
C1143      C1144   1.403       .  A
C1143      H1150   1.082       .  S
C1144      C1145   1.413   1_565  A
C1144      H1151   1.082       .  S
C1146      H1152   1.082       .  S
C1153      C1154   1.406       .  A
C1153      C1158   1.404       .  A
C1154      C1155   1.399       .  A
C1154      H1163   1.083       .  S
C1155      C1156   1.403       .  A
C1155      H1164   1.084       .  S
C1156      C1162   1.406       .  A
C1156      C1157   1.414       .  A
C1157      C1159   1.401       .  A
C1157      C1158   1.403       .  A
C1158      H1165   1.084       .  S
C1159      C1160   1.397       .  A
C1159      H1166   1.084       .  S
C1160      C1161   1.406       .  A
C1160      H1167   1.083       .  S
C1161      C1162   1.408       .  A
C1162      H1168   1.084       .  S
C1169      C1170   1.406       .  A
C1169      C1174   1.404       .  A
C1170      C1171   1.398       .  A
C1170      H1179   1.083       .  S
C1171      C1172   1.402       .  A
C1171      H1180   1.084       .  S
C1172      C1178   1.406       .  A
C1172      C1173   1.414       .  A
C1173      C1175   1.399       .  A
C1173      C1174   1.404       .  A
C1174      H1181   1.084       .  S
C1175      C1176   1.396       .  A
C1175      H1182   1.084       .  S
C1176      C1177   1.409       .  A
C1176      H1183   1.082   1_556  S
C1177      C1178   1.407       .  A
C1178      H1184   1.084       .  S
C1185      C1190   1.412   1_554  A
C1186      C1187   1.400   1_655  A
C1186      H1195   1.079       .  S
C1187      H1196   1.084       .  S
C1188      C1194   1.407       .  A
C1188      C1189   1.410       .  A
C1190      H1197   1.080       .  S
C1191      H1198   1.083       .  S
C1192      C1193   1.410       .  A
C1192      H1199   1.081       .  S
C1193      C1194   1.410       .  A
C1194      H1200   1.082       .  S
C1201      C1202   1.412       .  A
C1201      C1206   1.410       .  A
C1202      C1203   1.396       .  A
C1202      H1211   1.083       .  S
C1203      C1204   1.399       .  A
C1203      H1212   1.084       .  S
C1204      C1210   1.409       .  A
C1204      C1205   1.413       .  A
C1205      C1206   1.409       .  A
C1206      H1213   1.081       .  S
C1207      C1208   1.395       .  A
C1207      H1214   1.084       .  S
C1208      C1209   1.411       .  A
C1208      H1215   1.082       .  S
C1210      H1216   1.081       .  S
C1217      C1218   1.416       .  A
C1217      C1222   1.414       .  A
C1218      C1219   1.402       .  A
C1218      H1227   1.078       .  S
C1219      C1220   1.401       .  A
C1219      H1228   1.084       .  S
C1220      C1226   1.409       .  A
C1220      C1221   1.408       .  A
C1221      C1223   1.402       .  A
C1221      C1222   1.407       .  A
C1222      H1229   1.079       .  S
C1223      C1224   1.399       .  A
C1223      H1230   1.084       .  S
C1224      C1225   1.407       .  A
C1224      H1231   1.081       .  S
C1225      C1226   1.414       .  A
C1226      H1232   1.082       .  S
C1233      C1234   1.411       .  A
C1233      C1238   1.413       .  A
C1234      H1243   1.082       .  S
C1235      C1236   1.403       .  A
C1235      H1244   1.084   1_455  S
C1236      C1242   1.413   1_455  A
C1237      C1239   1.400       .  A
C1237      C1238   1.410       .  A
C1238      H1245   1.082       .  S
C1239      H1246   1.083       .  S
C1240      C1241   1.411   1_455  A
C1241      C1242   1.418       .  A
C1242      H1248   1.081       .  S
C1249      C1250   1.407       .  A
C1249      C1254   1.405       .  A
C1250      C1251   1.398       .  A
C1250      H1259   1.083       .  S
C1251      C1252   1.402       .  A
C1251      H1260   1.084       .  S
C1252      C1258   1.406       .  A
C1252      C1253   1.414       .  A
C1253      C1255   1.400       .  A
C1253      C1254   1.406       .  A
C1254      H1261   1.084       .  S
C1255      C1256   1.396       .  A
C1255      H1262   1.084       .  S
C1256      C1257   1.405       .  A
C1256      H1263   1.080       .  S
C1257      C1258   1.408       .  A
C1258      H1264   1.084       .  S
