geometry optimzed in LAMMPS
_audit_creation_date              2020-12-01 
_audit_creation_method            'lammps2cif' 
_symmetry_space_group_name_H-M    'P1' 
_symmetry_Int_Tables_number       1 
_symmetry_cell_setting            triclinic 
loop_ 
_symmetry_equiv_pos_as_xyz 
  x,y,z 
_cell_length_a                    48.02873602 
_cell_length_b                    42.12123028507384 
_cell_length_c                    41.92112811146116 
_cell_angle_alpha                 89.96713173259872 
_cell_angle_beta                  89.97947910888188 
_cell_angle_gamma                 90.1651157344925 
loop_ 
_atom_site_label 
_atom_site_type_symbol 
_atom_site_fract_x 
_atom_site_fract_y 
_atom_site_fract_z 
_atom_site_charge 
N1          N  0.35334678  0.92596060  0.52466072    -0.26400
N2          N  0.37705685  0.94184602  0.52606999    -0.34200
C3          C  0.38257761  0.95452338  0.49746214     0.02000
C4          C  0.36116422  0.94679048  0.47701218     0.08000
C5          C  0.34287255  0.92856198  0.49491154    -0.05100
H6          H  0.40193503  0.96621230  0.49128114     0.08700
H7          H  0.32485967  0.91573356  0.48623115     0.09900
Cu8        Cu  0.40477945  0.93939398  0.56331185     0.44200
Cu9        Cu  0.34074762  0.89681537  0.56188948     0.42000
Cu10       Cu  0.39759497  0.87714574  0.61912087     0.43900
N11         N  0.43767677  0.92321214  0.59001765    -0.33700
N12         N  0.43576743  0.89882653  0.60969561    -0.28000
C13         C  0.46165905  0.89004107  0.61839055    -0.04100
C14         C  0.48058361  0.90996651  0.60328560     0.08100
C15         C  0.46456615  0.93075808  0.58567557     0.01900
H16         H  0.46638567  0.86961982  0.63305621     0.09600
H17         H  0.47191074  0.94840904  0.56888367     0.08600
N18         N  0.35673601  0.86045508  0.62186197    -0.35200
N19         N  0.33652620  0.86787136  0.60170403    -0.27400
C20         C  0.31316472  0.85245700  0.61031467    -0.02600
C21         C  0.31886937  0.83423956  0.63685795     0.06000
C22         C  0.34666609  0.83996159  0.64367481     0.04100
H23         H  0.29361824  0.85370384  0.59755636     0.09200
H24         H  0.35888424  0.82973039  0.66272855     0.08000
N25         N  0.64316760  0.91500329  0.52690591    -0.26400
N26         N  0.62158373  0.93431300  0.52876264    -0.34200
C27         C  0.62097210  0.95291190  0.50276594     0.02000
C28         C  0.64325329  0.94528017  0.48344805     0.08000
C29         C  0.65676183  0.92084840  0.49931973    -0.05100
H30         H  0.60381686  0.96835747  0.49664296     0.08700
H31         H  0.67354073  0.90643173  0.49009853     0.09900
Cu32       Cu  0.58940746  0.92908687  0.56109457     0.44200
Cu33       Cu  0.64947348  0.87817968  0.55960245     0.42000
Cu34       Cu  0.58868752  0.85884281  0.60925803     0.43900
N35         N  0.55470474  0.91395197  0.58607048    -0.33700
N36         N  0.55391320  0.88755845  0.60310111    -0.28000
C37         C  0.52758299  0.88258232  0.61311044    -0.04100
C38         C  0.51111971  0.90703793  0.60169238     0.08100
C39         C  0.52905124  0.92647564  0.58472785     0.01900
H40         H  0.52074749  0.86200737  0.62646767     0.09600
H41         H  0.52365624  0.94735833  0.57105036     0.08600
N42         N  0.62669324  0.83532130  0.61181309    -0.35200
N43         N  0.64884539  0.84261366  0.59444504    -0.27400
C44         C  0.67007798  0.82363953  0.60316267    -0.02600
C45         C  0.66079667  0.80342396  0.62705328     0.06000
C46         C  0.63320635  0.81139824  0.63172950     0.04100
H47         H  0.69068366  0.82451995  0.59278057     0.09200
H48         H  0.61900460  0.80096862  0.64885153     0.08000
N49         N  0.64684871  0.98128625  0.40489463    -0.26400
N50         N  0.62703502  0.95977244  0.40087239    -0.34200
C51         C  0.62503204  0.94187223  0.42726882     0.02000
C52         C  0.64446077  0.95231127  0.44913348     0.08000
C53         C  0.65776810  0.97762820  0.43434867    -0.05100
H54         H  0.60869170  0.92463790  0.43150713     0.08700
H55         H  0.67261828  0.99373783  0.44511301     0.09900
Cu56       Cu  0.59801045  0.96028453  0.36441319     0.44200
Cu57       Cu  0.65491736  0.01716424  0.37151593     0.42000
Cu58       Cu  0.59951236  0.02692578  0.31296727     0.43900
N59         N  0.56468117  0.97261680  0.33575283    -0.33700
N60         N  0.56493905  0.99805249  0.31734746    -0.28000
C61         C  0.53908534  0.00330945  0.30627416    -0.04100
C62         C  0.52167425  0.98008761  0.31849012     0.08100
C63         C  0.53864700  0.96090149  0.33690985     0.01900
H64         H  0.53307272  0.02387795  0.29246220     0.09600
H65         H  0.53216910  0.94154273  0.35219792     0.08600
N66         N  0.63578133  0.05334884  0.31311490    -0.35200
N67         N  0.65610496  0.05014541  0.33415645    -0.27400
C68         C  0.67627482  0.07140175  0.32726113    -0.02600
C69         C  0.66806062  0.08872262  0.30068580     0.06000
C70         C  0.64237987  0.07654443  0.29243693     0.04100
H71         H  0.69533117  0.07406995  0.34073497     0.09200
H72         H  0.62928257  0.08413706  0.27288430     0.08000
N73         N  0.36024250  0.97222925  0.39468458    -0.26400
N74         N  0.38338342  0.95541993  0.39557212    -0.34200
C75         C  0.38562731  0.94152134  0.42421460     0.02000
C76         C  0.36267396  0.94961686  0.44224269     0.08000
C77         C  0.34697544  0.96928894  0.42289147    -0.05100
H78         H  0.40389788  0.92893664  0.43238567     0.08700
H79         H  0.32894345  0.98296968  0.42987633     0.09900
Cu80       Cu  0.41428898  0.95850675  0.36157410     0.44200
Cu81       Cu  0.35222136  0.00330651  0.35752717     0.42000
Cu82       Cu  0.41185205  0.02302835  0.30523579     0.43900
N83         N  0.44772274  0.97197562  0.33378841    -0.33700
N84         N  0.44741031  0.99625196  0.31380573    -0.28000
C85         C  0.47356908  0.00172001  0.30356077    -0.04100
C86         C  0.49104876  0.97985216  0.31794950     0.08100
C87         C  0.47389947  0.96130845  0.33677534     0.01900
H88         H  0.47962251  0.02137931  0.28843354     0.09600
H89         H  0.48020955  0.94303146  0.35338531     0.08600
N90         N  0.37308351  0.04492119  0.30327704    -0.35200
N91         N  0.35168922  0.03716495  0.32164766    -0.27400
C92         C  0.33002489  0.05595769  0.31454283    -0.02600
C93         C  0.33809365  0.07664869  0.29060584     0.06000
C94         C  0.36550488  0.06905064  0.28409735     0.04100
H95         H  0.31015446  0.05503438  0.32664613     0.09200
H96         H  0.37903563  0.08040825  0.26686074     0.08000
N97         N  0.34032992  0.42409807  0.41257185    -0.26400
N98         N  0.36320872  0.44132744  0.40944128    -0.34200
C99         C  0.36723896  0.45822217  0.43616388     0.02000
C100        C  0.34576802  0.45174428  0.45709411     0.08000
C101        C  0.32912603  0.42978715  0.44151242    -0.05100
H102        H  0.38586553  0.47182409  0.44123285     0.08700
H103        H  0.31182498  0.41668041  0.45159097     0.09900
Cu104      Cu  0.39222575  0.43520516  0.37355819     0.44200
Cu105      Cu  0.32932567  0.38932237  0.37972645     0.42000
Cu106      Cu  0.38726602  0.36460515  0.32729800     0.43900
N107        N  0.42535804  0.41716728  0.34791237    -0.33700
N108        N  0.42432382  0.39016819  0.33193484    -0.28000
C109        C  0.45033357  0.38254808  0.32245129    -0.04100
C110        C  0.46847015  0.40595582  0.33314396     0.08100
C111        C  0.45180002  0.42750485  0.34902475     0.01900
H112        H  0.45579432  0.36087365  0.31014524     0.09600
H113        H  0.45857221  0.44820384  0.36219928     0.08600
N114        N  0.34723898  0.34518014  0.32644626    -0.35200
N115        N  0.32638275  0.35427247  0.34495756    -0.27400
C116        C  0.30351700  0.33731484  0.33741394    -0.02600
C117        C  0.31023809  0.31651363  0.31313662     0.06000
C118        C  0.33813570  0.32215181  0.30677538     0.04100
H119        H  0.28343506  0.33993965  0.34880695     0.09200
H120        H  0.35088410  0.31077956  0.28887449     0.08000
N121        N  0.63306332  0.42827321  0.40063947    -0.26400
N122        N  0.60910052  0.44361736  0.40048705    -0.34200
C123        C  0.60627476  0.45957512  0.42791599     0.02000
C124        C  0.62952445  0.45435924  0.44646048     0.08000
C125        C  0.64619630  0.43434136  0.42847427    -0.05100
H126        H  0.58726305  0.47115299  0.43535127     0.08700
H127        H  0.66477884  0.42227220  0.43648764     0.09900
Cu128      Cu  0.57713410  0.43556209  0.36869576     0.44200
Cu129      Cu  0.64261725  0.39441428  0.36599640     0.42000
Cu130      Cu  0.58113832  0.36917045  0.31781821     0.43900
N131        N  0.54276748  0.41793490  0.34507618    -0.33700
N132        N  0.54356394  0.39241682  0.32683521    -0.28000
C133        C  0.51726584  0.38458063  0.31849112    -0.04100
C134        C  0.49923112  0.40633875  0.33229969     0.08100
C135        C  0.51623803  0.42712867  0.34883978     0.01900
H136        H  0.51163306  0.36391948  0.30457904     0.09600
H137        H  0.50975537  0.44647613  0.36406352     0.08600
N138        N  0.62136212  0.35075015  0.31342532    -0.35200
N139        N  0.64329260  0.35967827  0.33042437    -0.27400
C140        C  0.66547030  0.34230772  0.32139349    -0.02600
C141        C  0.65714001  0.32151514  0.29756104     0.06000
C142        C  0.62912584  0.32758271  0.29322190     0.04100
H143        H  0.68600982  0.34454063  0.33172820     0.09200
H144        H  0.61526045  0.31576352  0.27668748     0.08000
N145        N  0.34471620  0.48536493  0.53664030    -0.26400
N146        N  0.36664009  0.46651800  0.53815125    -0.34200
C147        C  0.36858514  0.44981963  0.51104400     0.02000
C148        C  0.34673952  0.45809994  0.49146003     0.08000
C149        C  0.33199602  0.48085617  0.50828249    -0.05100
H150        H  0.38606437  0.43487752  0.50486210     0.08700
H151        H  0.31492880  0.49506853  0.49944291     0.09900
Cu152      Cu  0.39723396  0.46901299  0.57248487     0.44200
Cu153      Cu  0.33695093  0.51992174  0.57116968     0.42000
Cu154      Cu  0.39611142  0.53218498  0.62724697     0.43900
N155        N  0.43170707  0.48169468  0.59878721    -0.33700
N156        N  0.43179217  0.50582238  0.61885286    -0.28000
C157        C  0.45823811  0.51196713  0.62763945    -0.04100
C158        C  0.47550796  0.49073057  0.61202171     0.08100
C159        C  0.45792518  0.47178128  0.59414822     0.01900
H160        H  0.46456110  0.53189144  0.64223689     0.09600
H161        H  0.46388067  0.45401549  0.57683442     0.08600
N162        N  0.35852716  0.55643480  0.62866234    -0.35200
N163        N  0.33742439  0.55257658  0.60867094    -0.27400
C164        C  0.31706539  0.57309097  0.61661250    -0.02600
C165        C  0.32584474  0.59053185  0.64283180     0.06000
C166        C  0.35209205  0.57926800  0.64973890     0.04100
H167        H  0.29745942  0.57512708  0.60410739     0.09200
H168        H  0.36574159  0.58735382  0.66860529     0.08000
N169        N  0.63476833  0.48329395  0.52768374    -0.26400
N170        N  0.61196133  0.46569449  0.52913230    -0.34200
C171        C  0.60843702  0.45065232  0.50126542     0.02000
C172        C  0.63006895  0.45879639  0.48118387     0.08000
C173        C  0.64643643  0.47965279  0.49860802    -0.05100
H174        H  0.59000368  0.43720995  0.49497888     0.08700
H175        H  0.66379955  0.49352442  0.48978488     0.09900
Cu176      Cu  0.58202543  0.46875491  0.56432740     0.44200
Cu177      Cu  0.64487773  0.51623486  0.56294356     0.42000
Cu178      Cu  0.58538171  0.53602879  0.61459285     0.43900
N179        N  0.54868857  0.48360949  0.59153325    -0.33700
N180        N  0.54949771  0.50934413  0.60945938    -0.28000
C181        C  0.52382132  0.51514883  0.62088445    -0.04100
C182        C  0.50604211  0.49186954  0.60944957     0.08100
C183        C  0.52253841  0.47227593  0.59096158     0.01900
H184        H  0.51830338  0.53560369  0.63511656     0.09600
H185        H  0.51579508  0.45230475  0.57667989     0.08600
N186        N  0.62401346  0.55762925  0.61690705    -0.35200
N187        N  0.64583474  0.55013743  0.59916151    -0.27400
C188        C  0.66760646  0.56823985  0.60821365    -0.02600
C189        C  0.65887243  0.58795698  0.63268558     0.06000
C190        C  0.63118270  0.58077911  0.63733034     0.04100
H191        H  0.68807743  0.56738673  0.59747765     0.09200
H192        H  0.61728998  0.59128524  0.65466330     0.08000
N193        N  0.84153151  0.92128976  0.91296468    -0.26400
N194        N  0.86385369  0.93968963  0.91165275    -0.34200
C195        C  0.86706074  0.95458165  0.93967656     0.02000
C196        C  0.84564773  0.94554210  0.95965096     0.08000
C197        C  0.82985937  0.92421034  0.94211170    -0.05100
H198        H  0.88499475  0.96886796  0.94597685     0.08700
H199        H  0.81263845  0.90997456  0.95071392     0.09900
Cu200      Cu  0.89313459  0.93861274  0.87567096     0.44200
Cu201      Cu  0.83156383  0.88934055  0.87668058     0.42000
Cu202      Cu  0.88945118  0.87440016  0.82092131     0.43900
N203        N  0.92633496  0.92524585  0.84759295    -0.33700
N204        N  0.92558932  0.90060999  0.82814330    -0.28000
C205        C  0.95165711  0.89432679  0.81814031    -0.04100
C206        C  0.96956714  0.91602041  0.83223818     0.08100
C207        C  0.95272929  0.93536271  0.85053248     0.01900
H208        H  0.95735011  0.87409443  0.80368112     0.09600
H209        H  0.95938180  0.95368750  0.86693802     0.08600
N210        N  0.85075841  0.85230059  0.81864805    -0.35200
N211        N  0.82976665  0.85779222  0.83834817    -0.27400
C212        C  0.80803774  0.83940080  0.82976350    -0.02600
C213        C  0.81569939  0.82147604  0.80354743     0.06000
C214        C  0.84295136  0.83030535  0.79717938     0.04100
H215        H  0.78815481  0.83891441  0.84189719     0.09200
H216        H  0.85630486  0.82147524  0.77842801     0.08000
N217        N  0.13293307  0.92126617  0.90848904    -0.26400
N218        N  0.10942292  0.93734730  0.91052433    -0.34200
C219        C  0.10752776  0.95042586  0.93953244     0.02000
C220        C  0.13087220  0.94227568  0.95682178     0.08000
C221        C  0.14666585  0.92373316  0.93646555    -0.05100
H222        H  0.08908491  0.96206996  0.94857713     0.08700
H223        H  0.16504385  0.91026627  0.94262999     0.09900
Cu224      Cu  0.07703226  0.93388569  0.87842905     0.44200
Cu225      Cu  0.14106528  0.89126526  0.87031574     0.42000
Cu226      Cu  0.07958987  0.87230911  0.82065292     0.43900
N227        N  0.04324133  0.92151876  0.85066940    -0.33700
N228        N  0.04367907  0.89805472  0.82980382    -0.28000
C229        C  0.01770213  0.89337430  0.81860518    -0.04100
C230        C  0.00018483  0.91499843  0.83326581     0.08100
C231        C  0.01713976  0.93250527  0.85332110     0.01900
H232        H  0.01181596  0.87464801  0.80227530     0.09600
H233        H  0.01074942  0.95055170  0.87012828     0.08600
N234        N  0.11853857  0.85150260  0.81576514    -0.35200
N235        N  0.14082043  0.85894362  0.83281951    -0.27400
C236        C  0.16236066  0.84103583  0.82301678    -0.02600
C237        C  0.15311891  0.82126542  0.79880826     0.06000
C238        C  0.12529920  0.82851343  0.79494614     0.04100
H239        H  0.18296246  0.84184944  0.83339362     0.09200
H240        H  0.11092741  0.81774038  0.77825761     0.08000
N241        N  0.84386157  0.97874564  0.03891614    -0.26400
N242        N  0.86551786  0.95959397  0.04090348    -0.34200
C243        C  0.86714933  0.94217315  0.01419585     0.02000
C244        C  0.84547565  0.95052625  0.99427879     0.08000
C245        C  0.83118914  0.97400888  0.01060188    -0.05100
H246        H  0.88471289  0.92733786  0.00806987     0.08700
H247        H  0.81475862  0.98883917  0.00121458     0.09900
Cu248      Cu  0.89683358  0.96472178  0.07423752     0.44200
Cu249      Cu  0.83677621  0.01421429  0.07250297     0.42000
Cu250      Cu  0.89653447  0.03303933  0.12459358     0.43900
N251        N  0.93139885  0.98007876  0.09919648    -0.33700
N252        N  0.93176853  0.00573185  0.11729801    -0.28000
C253        C  0.95818127  0.01168257  0.12635697    -0.04100
C254        C  0.97515600  0.98874165  0.11297087     0.08100
C255        C  0.95743928  0.96906450  0.09607592     0.01900
H256        H  0.96469727  0.03221918  0.13995681     0.09600
H257        H  0.96320088  0.94940732  0.08087439     0.08600
N258        N  0.85778968  0.05438435  0.12762911    -0.35200
N259        N  0.83616318  0.04738497  0.10933912    -0.27400
C260        C  0.81426137  0.06491275  0.11873387    -0.02600
C261        C  0.82251364  0.08390523  0.14391684     0.06000
C262        C  0.85025477  0.07661183  0.14891595     0.04100
H263        H  0.79380962  0.06393939  0.10796154     0.09200
H264        H  0.86397970  0.08631116  0.16690670     0.08000
N265        N  0.13732481  0.96741649  0.03844371    -0.26400
N266        N  0.11358426  0.95155619  0.03911151    -0.34200
C267        C  0.10998577  0.93674181  0.01119167     0.02000
C268        C  0.13234986  0.94364475  0.99169125     0.08000
C269        C  0.14944700  0.96314203  0.00974782    -0.05100
H270        H  0.09068959  0.92552109  0.00399540     0.08700
H271        H  0.16725059  0.97650342  0.00127840     0.09900
Cu272      Cu  0.08216700  0.95955380  0.07155192     0.44200
Cu273      Cu  0.14717262  0.00026563  0.07337490     0.42000
Cu274      Cu  0.08765839  0.02456999  0.12469399     0.43900
N275        N  0.04860080  0.97698607  0.09661151    -0.33700
N276        N  0.05019259  0.00151420  0.11611983    -0.28000
C277        C  0.02436992  0.00890673  0.12620472    -0.04100
C278        C  0.00576434  0.98797590  0.11212678     0.08100
C279        C  0.02188783  0.96810892  0.09357181     0.01900
H280        H  0.01943531  0.02878416  0.14150619     0.09600
H281        H  0.01467783  0.94954455  0.07775526     0.08600
N282        N  0.12793016  0.04235318  0.12777386    -0.35200
N283        N  0.14916309  0.03344443  0.10974833    -0.27400
C284        C  0.17195831  0.04984954  0.11846000    -0.02600
C285        C  0.16480778  0.06998350  0.14305601     0.06000
C286        C  0.13672398  0.06466847  0.14835663     0.04100
H287        H  0.19224877  0.04739366  0.10752778     0.09200
H288        H  0.12345602  0.07623940  0.16561768     0.08000
N289        N  0.86273123  0.48823488  0.90386336    -0.26400
N290        N  0.88481504  0.46954284  0.90381674    -0.34200
C291        C  0.88661647  0.45478325  0.93210239     0.02000
C292        C  0.86456756  0.46411947  0.95104140     0.08000
C293        C  0.84982281  0.48556559  0.93243485    -0.05100
H294        H  0.90403826  0.44023872  0.93935181     0.08700
H295        H  0.83251404  0.50010739  0.94003104     0.09900
Cu296      Cu  0.91540347  0.46899879  0.86877450     0.44200
Cu297      Cu  0.85456747  0.51959494  0.86630599     0.42000
Cu298      Cu  0.91342678  0.52861841  0.80969298     0.43900
N299        N  0.94923468  0.47927894  0.83969534    -0.33700
N300        N  0.94895955  0.50254289  0.81858532    -0.28000
C301        C  0.97505951  0.50768572  0.80799434    -0.04100
C302        C  0.99258630  0.48651051  0.82322781     0.08100
C303        C  0.97545050  0.46870926  0.84293252     0.01900
H304        H  0.98103181  0.52673027  0.79204798     0.09600
H305        H  0.98187882  0.45132271  0.86042156     0.08600
N306        N  0.87560046  0.55163237  0.80582085    -0.35200
N307        N  0.85432186  0.54849786  0.82569122    -0.27400
C308        C  0.83338832  0.56715088  0.81547383    -0.02600
C309        C  0.84204105  0.58267976  0.78798075     0.06000
C310        C  0.86882419  0.57227661  0.78269029     0.04100
H311        H  0.81354381  0.56940540  0.82743858     0.09200
H312        H  0.88254339  0.57935279  0.76346145     0.08000
N313        N  0.15052416  0.47641362  0.90550745    -0.26400
N314        N  0.12893898  0.45726957  0.90145037    -0.34200
C315        C  0.12592429  0.43890148  0.92736659     0.02000
C316        C  0.14673885  0.44633474  0.94875692     0.08000
C317        C  0.16187604  0.47043836  0.93432168    -0.05100
H318        H  0.10827175  0.42344103  0.93162578     0.08700
H319        H  0.17823256  0.48449594  0.94511215     0.09900
Cu320      Cu  0.09975088  0.46154117  0.86567967     0.44200
Cu321      Cu  0.15998197  0.51332451  0.87396534     0.42000
Cu322      Cu  0.10309873  0.53018474  0.81787388     0.43900
N323        N  0.06633569  0.47708485  0.83918246    -0.33700
N324        N  0.06699239  0.50341114  0.82211756    -0.28000
C325        C  0.04101655  0.51002090  0.81201891    -0.04100
C326        C  0.02324934  0.48666563  0.82353940     0.08100
C327        C  0.04008018  0.46617571  0.84053562     0.01900
H328        H  0.03526093  0.53127194  0.79913037     0.09600
H329        H  0.03348670  0.44607834  0.85475491     0.08600
N330        N  0.14129580  0.55323485  0.81786358    -0.35200
N331        N  0.16188010  0.54775430  0.83809876    -0.27400
C332        C  0.18315868  0.56754146  0.83114883    -0.02600
C333        C  0.17554746  0.58623630  0.80538605     0.06000
C334        C  0.14890635  0.57638133  0.79759383     0.04100
H335        H  0.20271390  0.56832481  0.84394024     0.09200
H336        H  0.13578609  0.58529538  0.77867489     0.08000
N337        N  0.85674086  0.43559354  0.03260408    -0.26400
N338        N  0.88142619  0.44953703  0.03349865    -0.34200
C339        C  0.88621155  0.46425630  0.00566651     0.02000
C340        C  0.86355244  0.45982044  0.98595401     0.08000
C341        C  0.84513313  0.44139707  0.00375731    -0.05100
H342        H  0.90601487  0.47463502  0.99900486     0.08700
H343        H  0.82616990  0.43038229  0.99522934     0.09900
Cu344      Cu  0.91162049  0.44099019  0.06747884     0.44200
Cu345      Cu  0.84401036  0.40418455  0.06886200     0.42000
Cu346      Cu  0.90285932  0.37531171  0.11937455     0.43900
N347        N  0.94439343  0.42044028  0.09172333    -0.33700
N348        N  0.94170509  0.39527834  0.11028389    -0.28000
C349        C  0.96727524  0.38491404  0.11853525    -0.04100
C350        C  0.98684668  0.40457194  0.10423373     0.08100
C351        C  0.97152717  0.42682398  0.08757733     0.01900
H352        H  0.97129067  0.36383805  0.13253812     0.09600
H353        H  0.97946386  0.44517519  0.07194080     0.08600
N354        N  0.86157528  0.36068933  0.12370097    -0.35200
N355        N  0.84041414  0.37116766  0.10638252    -0.27400
C356        C  0.81696938  0.35649108  0.11639430    -0.02600
C357        C  0.82365851  0.33575864  0.14091197     0.06000
C358        C  0.85215862  0.33912384  0.14482363     0.04100
H359        H  0.79654029  0.36028271  0.10624602     0.09200
H360        H  0.86528433  0.32689868  0.16177272     0.08000
N361        N  0.14772059  0.40865376  0.02643504    -0.26400
N362        N  0.12605223  0.42773395  0.02906559    -0.34200
C363        C  0.12424985  0.44597042  0.00293266     0.02000
C364        C  0.14592796  0.43839319  0.98279427     0.08000
C365        C  0.16032838  0.41439035  0.99822922    -0.05100
H366        H  0.10690648  0.46144600  0.99762742     0.08700
H367        H  0.17719974  0.40041305  0.98856213     0.09900
Cu368      Cu  0.09556972  0.42307455  0.06322198     0.44200
Cu369      Cu  0.15576171  0.37317604  0.06000218     0.42000
Cu370      Cu  0.09597659  0.35521216  0.11285114     0.43900
N371        N  0.06101513  0.40805649  0.08805085    -0.33700
N372        N  0.06026955  0.38197698  0.10549955    -0.28000
C373        C  0.03381961  0.37686689  0.11515142    -0.04100
C374        C  0.01734642  0.40104320  0.10298990     0.08100
C375        C  0.03536342  0.42030404  0.08603972     0.01900
H376        H  0.02699110  0.35660963  0.12900088     0.09600
H377        H  0.03008076  0.44094889  0.07196003     0.08600
N378        N  0.13555607  0.33598501  0.11776749    -0.35200
N379        N  0.15695869  0.34192216  0.09872114    -0.27400
C380        C  0.17904911  0.32513240  0.10897490    -0.02600
C381        C  0.17126872  0.30808633  0.13577600     0.06000
C382        C  0.14354583  0.31557447  0.14065457     0.04100
H383        H  0.19934068  0.32533982  0.09775461     0.09200
H384        H  0.12992410  0.30662085  0.15914944     0.08000
N385        N  0.20982168  0.71174918  0.74962294    -0.35700
N386        N  0.24865071  0.75910231  0.72516820    -0.56200
N387        N  0.27412241  0.71043671  0.68484263    -0.35700
N388        N  0.23686761  0.66285160  0.71118003    -0.56200
C389        C  0.20419251  0.73640721  0.76927017     0.27900
C390        C  0.19959633  0.68517965  0.76365061     0.27900
C391        C  0.29200318  0.73481037  0.67966674     0.27900
C392        C  0.28550493  0.68395090  0.67197270     0.27900
C393        C  0.23167834  0.77863765  0.74178508     0.36500
C394        C  0.26580834  0.77795369  0.70787084     0.36500
C395        C  0.21615265  0.64523009  0.72398591     0.36500
C396        C  0.24877280  0.64490476  0.68823273     0.36500
C397        C  0.18989018  0.72545582  0.79584352    -0.21000
C398        C  0.18698616  0.69317351  0.79230186    -0.21000
C399        C  0.31482380  0.72377652  0.66270289    -0.21000
C400        C  0.31070578  0.69185948  0.65778359    -0.21000
C401        C  0.23837939  0.81002316  0.73544267    -0.22000
C402        C  0.26011149  0.80960710  0.71424640    -0.22000
C403        C  0.21489863  0.61584048  0.70919870    -0.22000
C404        C  0.23554929  0.61562328  0.68655385    -0.22000
C405        C  0.21092583  0.76868389  0.76356822    -0.17400
C406        C  0.20004496  0.65415122  0.75068224    -0.17400
C407        C  0.27306933  0.65328092  0.67105287    -0.17400
C408        C  0.28748181  0.76712441  0.68767121    -0.17400
H409        H  0.18246829  0.73925205  0.81587328     0.15500
H410        H  0.17667030  0.67740916  0.80895690     0.15500
H411        H  0.33243195  0.73736532  0.65405725     0.15500
H412        H  0.32458135  0.67654726  0.64457815     0.15500
H413        H  0.22880777  0.83110422  0.74524008     0.13800
H414        H  0.27052345  0.83040738  0.70486714     0.13800
H415        H  0.20099609  0.59630780  0.71466176     0.13800
H416        H  0.24069046  0.59580298  0.67125151     0.13800
H417        H  0.21744069  0.71351696  0.72652762     0.27100
H418        H  0.25407858  0.71250160  0.69361211     0.27100
N419        N  0.78293692  0.69746294  0.74444247    -0.35700
N420        N  0.75462534  0.74536620  0.70597709    -0.56200
N421        N  0.72248907  0.69536282  0.67499928    -0.35700
N422        N  0.75309302  0.64721295  0.71106904    -0.56200
C423        C  0.79768972  0.72353357  0.75299604     0.27900
C424        C  0.79635799  0.67177169  0.75624153     0.27900
C425        C  0.71534285  0.72050548  0.65660482     0.27900
C426        C  0.71500904  0.66877931  0.65897135     0.27900
C427        C  0.76918958  0.76503254  0.72533046     0.36500
C428        C  0.73762808  0.76391094  0.68828077     0.36500
C429        C  0.76532759  0.62942597  0.73395607     0.36500
C430        C  0.73464256  0.62808565  0.69606704     0.36500
C431        C  0.82056384  0.71430095  0.77090620    -0.21000
C432        C  0.81967929  0.68177832  0.77305202    -0.21000
C433        C  0.70289893  0.70975739  0.62878082    -0.21000
C434        C  0.70279057  0.67720481  0.63019783    -0.21000
C435        C  0.76172347  0.79626558  0.71945540    -0.22000
C436        C  0.74169858  0.79554627  0.69612793    -0.22000
C437        C  0.75486541  0.59871170  0.73314568    -0.22000
C438        C  0.73543568  0.59786913  0.70916115    -0.22000
C439        C  0.79042016  0.75553979  0.74674727    -0.17400
C440        C  0.78712948  0.63979510  0.75413050    -0.17400
C441        C  0.71774149  0.63711462  0.67002244    -0.17400
C442        C  0.71923424  0.75297953  0.66427563    -0.17400
H443        H  0.83608816  0.72942673  0.78188095     0.15500
H444        H  0.83438607  0.66738126  0.78612067     0.15500
H445        H  0.69496317  0.72387539  0.60923639     0.15500
H446        H  0.69466224  0.66156027  0.61195035     0.15500
H447        H  0.77002758  0.81747547  0.73050935     0.13800
H448        H  0.73152398  0.81606694  0.68592188     0.13800
H449        H  0.76077783  0.57886021  0.74805842     0.13800
H450        H  0.72330021  0.57732859  0.70217600     0.13800
H451        H  0.76335840  0.69743240  0.73419746     0.27100
H452        H  0.72927185  0.69634820  0.69844916     0.27100
N453        N  0.23602618  0.14093407  0.23331425    -0.35700
N454        N  0.27372331  0.18894672  0.25902657    -0.56200
N455        N  0.23848124  0.23868209  0.23247879    -0.35700
N456        N  0.20228855  0.19047727  0.20474330    -0.56200
C457        C  0.25682809  0.12218065  0.24398854     0.27900
C458        C  0.21958292  0.12300275  0.21423209     0.27900
C459        C  0.26045224  0.25625022  0.24242814     0.27900
C460        C  0.22332773  0.25689802  0.21233559     0.27900
C461        C  0.28376396  0.16304405  0.27420047     0.36500
C462        C  0.28512892  0.21446030  0.27366010     0.36500
C463        C  0.18583099  0.16517910  0.19839297     0.36500
C464        C  0.18726835  0.21663163  0.19767691     0.36500
C465        C  0.25340881  0.09177462  0.23193954    -0.21000
C466        C  0.22987714  0.09222354  0.21332509    -0.21000
C467        C  0.25906653  0.28620959  0.22881845    -0.21000
C468        C  0.23560842  0.28668268  0.20998042    -0.21000
C469        C  0.30170400  0.17216153  0.29843480    -0.22000
C470        C  0.30265460  0.20470150  0.29801049    -0.22000
C471        C  0.16025660  0.17534064  0.18698669    -0.22000
C472        C  0.16116524  0.20788191  0.18654751    -0.22000
C473        C  0.27790787  0.13121413  0.26571084    -0.17400
C474        C  0.19446497  0.13314227  0.19971276    -0.17400
C475        C  0.19774560  0.24803428  0.19789780    -0.17400
C476        C  0.28095304  0.24643042  0.26461716    -0.17400
H477        H  0.26627895  0.07120515  0.23647114     0.15500
H478        H  0.22117350  0.07182647  0.20122857     0.15500
H479        H  0.27330612  0.30585874  0.23231735     0.15500
H480        H  0.22831149  0.30694883  0.19655452     0.15500
H481        H  0.31296373  0.15698744  0.31475864     0.13800
H482        H  0.31480357  0.21948706  0.31391496     0.13800
H483        H  0.14294951  0.16089045  0.17900220     0.13800
H484        H  0.14470128  0.22325717  0.17816708     0.13800
H485        H  0.23156355  0.16352224  0.24159726     0.27100
H486        H  0.23254351  0.21685809  0.24173550     0.27100
N487        N  0.75424745  0.25842465  0.22887580    -0.35700
N488        N  0.79012110  0.20977219  0.20121374    -0.56200
N489        N  0.75842807  0.16051725  0.23426307    -0.35700
N490        N  0.72412185  0.20915158  0.26432021    -0.56200
C491        C  0.77442888  0.27694205  0.21580924     0.27900
C492        C  0.73980657  0.27658870  0.24980065     0.27900
C493        C  0.77897405  0.14264390  0.22155674     0.27900
C494        C  0.74509042  0.14247533  0.25619289     0.27900
C495        C  0.79993951  0.23529477  0.18512452     0.36500
C496        C  0.80150480  0.18394427  0.18722863     0.36500
C497        C  0.70918305  0.23459291  0.27399188     0.36500
C498        C  0.71163686  0.18311956  0.27687961     0.36500
C499        C  0.77239181  0.30738697  0.22806598    -0.21000
C500        C  0.75056138  0.30722644  0.24930909    -0.21000
C501        C  0.77842461  0.11264053  0.23519574    -0.21000
C502        C  0.75705115  0.11250628  0.25698907    -0.21000
C503        C  0.81775195  0.22560293  0.16099595    -0.22000
C504        C  0.81871766  0.19312921  0.16230833    -0.22000
C505        C  0.68729734  0.22454982  0.29319588    -0.22000
C506        C  0.68882609  0.19210057  0.29493986    -0.22000
C507        C  0.79452401  0.26735532  0.19291335    -0.17400
C508        C  0.71660315  0.26683605  0.26854361    -0.17400
C509        C  0.72162523  0.15156366  0.27445618    -0.17400
C510        C  0.79770220  0.15219331  0.19728819    -0.17400
H511        H  0.78537983  0.32767223  0.22246696     0.15500
H512        H  0.74356677  0.32750549  0.26292198     0.15500
H513        H  0.79197370  0.09282445  0.22996369     0.15500
H514        H  0.75094707  0.09246700  0.27160093     0.15500
H515        H  0.82901054  0.24039537  0.14423524     0.13800
H516        H  0.83087337  0.17802730  0.14677666     0.13800
H517        H  0.67226778  0.23894829  0.30575107     0.13800
H518        H  0.67514451  0.17700548  0.30880719     0.13800
H519        H  0.74903213  0.23551934  0.22177641     0.27100
H520        H  0.75215442  0.18269333  0.22610479     0.27100
C521        C  0.18895436  0.28584626  0.15399518    -0.15500
C522        C  0.18077047  0.27268964  0.18168153    -0.30700
H523        H  0.20920830  0.27979654  0.14420336     0.13500
H524        H  0.16036149  0.27787866  0.19145057     0.14100
C525        C  0.80427059  0.31419560  0.15817986    -0.15500
C526        C  0.81335896  0.29162632  0.17836675    -0.27500
H527        H  0.78214012  0.31596648  0.15316864     0.13500
H528        H  0.83554872  0.28847970  0.18201322     0.14100
C529        C  0.19247421  0.61132488  0.78995199    -0.15500
C530        C  0.18258457  0.62940113  0.76607543    -0.30700
H531        H  0.21357445  0.61521729  0.79847733     0.13500
H532        H  0.16157192  0.62618241  0.75717510     0.14100
C533        C  0.82719738  0.60624158  0.76828686    -0.15500
C534        C  0.80103963  0.61554636  0.77433144    -0.30700
H535        H  0.83832230  0.61670519  0.74826638     0.13500
H536        H  0.78911136  0.60462236  0.79341209     0.14100
C537        C  0.18357218  0.09261364  0.15910889    -0.15500
C538        C  0.17583441  0.10911504  0.18498374    -0.30700
H539        H  0.20438159  0.09582821  0.14940764     0.13500
H540        H  0.15490033  0.10677452  0.19444184     0.14100
C541        C  0.81551752  0.12769413  0.18223260    -0.15500
C542        C  0.80493075  0.10682052  0.16128713    -0.30700
H543        H  0.83777350  0.12883192  0.18656244     0.13500
H544        H  0.78279640  0.10734798  0.15593967     0.14100
C545        C  0.16849331  0.79645652  0.78128695    -0.15500
C546        C  0.19632274  0.79352341  0.78248432    -0.30700
H547        H  0.15654636  0.78035861  0.76631669     0.13500
H548        H  0.20874168  0.81061576  0.79569251     0.14100
C549        C  0.79818731  0.79780120  0.78677560    -0.15500
C550        C  0.80768664  0.78057584  0.76211054    -0.30700
H551        H  0.77701752  0.79406895  0.79516572     0.13500
H552        H  0.82903585  0.78315027  0.75404631     0.14100
C553        C  0.67471492  0.61229536  0.65016346    -0.15500
C554        C  0.70254023  0.61168443  0.65262358    -0.30700
H555        H  0.66310476  0.63097891  0.66206368     0.13500
H556        H  0.71425278  0.59182319  0.64305759     0.14100
C557        C  0.31154712  0.61617265  0.66035608    -0.15500
C558        C  0.28665995  0.62789615  0.65187606    -0.30700
H559        H  0.32208661  0.62607653  0.68104199     0.13500
H560        H  0.27524756  0.61766391  0.63202638     0.14100
C561        C  0.67353825  0.29712529  0.28042547    -0.15500
C562        C  0.70077700  0.29204746  0.28578411    -0.30700
H563        H  0.66273051  0.28251169  0.26299414     0.13500
H564        H  0.71208088  0.30709353  0.30234538     0.14100
C565        C  0.29110052  0.29377938  0.29750630    -0.15500
C566        C  0.30022664  0.27054921  0.27825616    -0.30700
H567        H  0.26899815  0.29546580  0.30278149     0.13500
H568        H  0.32239855  0.26722393  0.27455585     0.14100
C569        C  0.32175889  0.10244717  0.27594691    -0.15500
C570        C  0.29425453  0.10542593  0.28082792    -0.30700
H571        H  0.33247498  0.11926842  0.26054538     0.13500
H572        H  0.28293184  0.08766518  0.29444147     0.14100
C573        C  0.68251409  0.11490555  0.28397456    -0.15500
C574        C  0.70735928  0.12628423  0.29314108    -0.30700
H575        H  0.67241511  0.12514894  0.26318483     0.13500
H576        H  0.71829678  0.11585944  0.31320719     0.14100
C577        C  0.67634191  0.77870552  0.64464579    -0.15500
C578        C  0.70429929  0.77721737  0.64486812    -0.30700
H579        H  0.66447009  0.76187334  0.65889648     0.13500
H580        H  0.71651731  0.79515340  0.63254588     0.14100
C581        C  0.30733929  0.79086049  0.67442871    -0.15500
C582        C  0.29925403  0.81218194  0.65253690    -0.30700
H583        H  0.32913498  0.78886357  0.68092553     0.13500
H584        H  0.27761284  0.81261496  0.64496959     0.14100
loop_ 
_geom_bond_atom_site_label_1 
_geom_bond_atom_site_label_2 
_geom_bond_distance 
_geom_bond_site_symmetry_2 
_ccdc_geom_bond_type 
N1            N2   1.320       .  A
N1            C5   1.349       .  A
N1           Cu9   2.074       .  S
N2            C3   1.339       .  A
N2           Cu8   2.055       .  S
C3            C4   1.378       .  A
C3            H6   1.082       .  S
C4            C5   1.385       .  A
C4           C76   1.464       .  S
C5            H7   1.082       .  S
Cu8          N11   2.055       .  S
Cu9          N19   2.076       .  S
Cu10         N12   2.083       .  S
Cu10         N18   2.086       .  S
N11          N12   1.320       .  A
N11          C15   1.341       .  A
N12          C13   1.349       .  A
C13          C14   1.388       .  A
C13          H16   1.082       .  S
C14          C15   1.381       .  A
C14          C38   1.474       .  S
C15          H17   1.082       .  S
N18          N19   1.325       .  A
N18          C22   1.346       .  A
N19          C20   1.344       .  A
C20          C21   1.379       .  A
C20          H23   1.082       .  S
C21          C22   1.386       .  A
C21         C582   1.475       .  S
C22          H24   1.081       .  S
N25          N26   1.322       .  A
N25          C29   1.350       .  A
N25         Cu33   2.092       .  S
N26          C27   1.342       .  A
N26         Cu32   2.066       .  S
C27          C28   1.381       .  A
C27          H30   1.082       .  S
C28          C29   1.388       .  A
C28          C52   1.470       .  S
C29          H31   1.082       .  S
Cu32         N35   2.067       .  S
Cu33         N43   2.092       .  S
Cu34         N36   2.081       .  S
Cu34         N42   2.082       .  S
N35          N36   1.321       .  A
N35          C39   1.343       .  A
N36          C37   1.348       .  A
C37          C38   1.386       .  A
C37          H40   1.082       .  S
C38          C39   1.383       .  A
C39          H41   1.082       .  S
N42          N43   1.324       .  A
N42          C46   1.346       .  A
N43          C44   1.348       .  A
C44          C45   1.387       .  A
C44          H47   1.082       .  S
C45          C46   1.382       .  A
C45         C577   1.480       .  S
C46          H48   1.082       .  S
N49          N50   1.323       .  A
N49          C53   1.351       .  A
N49         Cu57   2.094   1_565  S
N50          C51   1.342       .  A
N50         Cu56   2.069       .  S
C51          C52   1.379       .  A
C51          H54   1.082       .  S
C52          C53   1.387       .  A
C53          H55   1.082       .  S
Cu56         N59   2.069       .  S
Cu57         N67   2.094       .  S
Cu58         N60   2.063   1_545  S
Cu58         N66   2.064       .  S
N59          N60   1.320       .  A
N59          C63   1.344       .  A
N60          C61   1.345   1_565  A
C61          C62   1.383   1_545  A
C61          H64   1.082       .  S
C62          C63   1.385       .  A
C62          C86   1.471       .  S
C63          H65   1.082       .  S
N66          N67   1.323       .  A
N66          C70   1.343       .  A
N67          C68   1.348       .  A
C68          C69   1.389       .  A
C68          H71   1.081       .  S
C69          C70   1.379       .  A
C69         C573   1.478       .  S
C70          H72   1.082       .  S
N73          N74   1.320       .  A
N73          C77   1.348       .  A
N73         Cu81   2.071   1_565  S
N74          C75   1.340       .  A
N74         Cu80   2.061       .  S
C75          C76   1.380       .  A
C75          H78   1.082       .  S
C76          C77   1.384       .  A
C77          H79   1.082       .  S
Cu80         N83   2.062       .  S
Cu81         N91   2.072       .  S
Cu82         N84   2.081   1_545  S
Cu82         N90   2.082       .  S
N83          N84   1.322       .  A
N83          C87   1.342       .  A
N84          C85   1.347   1_565  A
C85          C86   1.386   1_545  A
C85          H88   1.082       .  S
C86          C87   1.381       .  A
C87          H89   1.082       .  S
N90          N91   1.324       .  A
N90          C94   1.347       .  A
N91          C92   1.343       .  A
C92          C93   1.383       .  A
C92          H95   1.081       .  S
C93          C94   1.383       .  A
C93         C569   1.476       .  S
C94          H96   1.082       .  S
N97          N98   1.322       .  A
N97         C101   1.349       .  A
N97        Cu105   2.078       .  S
N98          C99   1.341       .  A
N98        Cu104   2.067       .  S
C99         C100   1.380       .  A
C99         H102   1.082       .  S
C100        C101   1.385       .  A
C100        C148   1.466       .  S
C101        H103   1.082       .  S
Cu104       N107   2.067       .  S
Cu105       N115   2.080       .  S
Cu106       N108   2.087       .  S
Cu106       N114   2.087       .  S
N107        N108   1.321       .  A
N107        C111   1.342       .  A
N108        C109   1.350       .  A
C109        C110   1.388       .  A
C109        H112   1.082       .  S
C110        C111   1.383       .  A
C110        C134   1.478       .  S
C111        H113   1.082       .  S
N114        N115   1.324       .  A
N114        C118   1.346       .  A
N115        C116   1.346       .  A
C116        C117   1.382       .  A
C116        H119   1.082       .  S
C117        C118   1.386       .  A
C117        C565   1.479       .  S
C118        H120   1.081       .  S
N121        N122   1.322       .  A
N121        C125   1.351       .  A
N121       Cu129   2.088       .  S
N122        C123   1.339       .  A
N122       Cu128   2.061       .  S
C123        C124   1.379       .  A
C123        H126   1.082       .  S
C124        C125   1.387       .  A
C124        C172   1.468       .  S
C125        H127   1.082       .  S
Cu128       N131   2.062       .  S
Cu129       N139   2.090       .  S
Cu130       N132   2.090       .  S
Cu130       N138   2.092       .  S
N131        N132   1.320       .  A
N131        C135   1.342       .  A
N132        C133   1.351       .  A
C133        C134   1.389       .  A
C133        H136   1.082       .  S
C134        C135   1.383       .  A
C135        H137   1.082       .  S
N138        N139   1.326       .  A
N138        C142   1.346       .  A
N139        C140   1.348       .  A
C140        C141   1.387       .  A
C140        H143   1.081       .  S
C141        C142   1.382       .  A
C141        C561   1.482       .  S
C142        H144   1.082       .  S
N145        N146   1.322       .  A
N145        C149   1.350       .  A
N145       Cu153   2.088       .  S
N146        C147   1.340       .  A
N146       Cu152   2.060       .  S
C147        C148   1.378       .  A
C147        H150   1.082       .  S
C148        C149   1.386       .  A
C149        H151   1.082       .  S
Cu152       N155   2.059       .  S
Cu153       N163   2.090       .  S
Cu154       N156   2.075       .  S
Cu154       N162   2.077       .  S
N155        N156   1.320       .  A
N155        C159   1.342       .  A
N156        C157   1.347       .  A
C157        C158   1.386       .  A
C157        H160   1.082       .  S
C158        C159   1.382       .  A
C158        C182   1.471       .  S
C159        H161   1.082       .  S
N162        N163   1.325       .  A
N162        C166   1.343       .  A
N163        C164   1.349       .  A
C164        C165   1.387       .  A
C164        H167   1.082       .  S
C165        C166   1.379       .  A
C165        C557   1.477       .  S
C166        H168   1.082       .  S
N169        N170   1.322       .  A
N169        C173   1.350       .  A
N169       Cu177   2.084       .  S
N170        C171   1.340       .  A
N170       Cu176   2.064       .  S
C171        C172   1.379       .  A
C171        H174   1.082       .  S
C172        C173   1.386       .  A
C173        H175   1.082       .  S
Cu176       N179   2.064       .  S
Cu177       N187   2.085       .  S
Cu178       N180   2.066       .  S
Cu178       N186   2.066       .  S
N179        N180   1.320       .  A
N179        C183   1.343       .  A
N180        C181   1.346       .  A
C181        C182   1.384       .  A
C181        H184   1.082       .  S
C182        C183   1.383       .  A
C183        H185   1.082       .  S
N186        N187   1.324       .  A
N186        C190   1.342       .  A
N187        C188   1.347       .  A
C188        C189   1.386       .  A
C188        H191   1.082       .  S
C189        C190   1.377       .  A
C189        C553   1.471       .  S
C190        H192   1.082       .  S
N193        N194   1.322       .  A
N193        C197   1.350       .  A
N193       Cu201   2.086       .  S
N194        C195   1.341       .  A
N194       Cu200   2.063       .  S
C195        C196   1.379       .  A
C195        H198   1.082       .  S
C196        C197   1.386       .  A
C196        C244   1.467       .  S
C197        H199   1.082       .  S
Cu200       N203   2.061       .  S
Cu201       N211   2.087       .  S
Cu202       N204   2.077       .  S
Cu202       N210   2.078       .  S
N203        N204   1.320       .  A
N203        C207   1.342       .  A
N204        C205   1.347       .  A
C205        C206   1.386       .  A
C205        H208   1.082       .  S
C206        C207   1.382       .  A
C206        C230   1.472   1_655  S
C207        H209   1.082       .  S
N210        N211   1.324       .  A
N210        C214   1.345       .  A
N211        C212   1.347       .  A
C212        C213   1.384       .  A
C212        H215   1.082       .  S
C213        C214   1.385       .  A
C213        C549   1.481       .  S
C214        H216   1.081       .  S
N217        N218   1.321       .  A
N217        C221   1.350       .  A
N217       Cu225   2.077       .  S
N218        C219   1.338       .  A
N218       Cu224   2.062       .  S
C219        C220   1.379       .  A
C219        H222   1.082       .  S
C220        C221   1.385       .  A
C220        C268   1.465       .  S
C221        H223   1.082       .  S
Cu224       N227   2.063       .  S
Cu225       N235   2.080       .  S
Cu226       N228   2.076       .  S
Cu226       N234   2.078       .  S
N227        N228   1.320       .  A
N227        C231   1.342       .  A
N228        C229   1.347       .  A
C229        C230   1.386       .  A
C229        H232   1.082       .  S
C230        C231   1.383       .  A
C231        H233   1.082       .  S
N234        N235   1.324       .  A
N234        C238   1.344       .  A
N235        C236   1.346       .  A
C236        C237   1.385       .  A
C236        H239   1.081       .  S
C237        C238   1.381       .  A
C237        C545   1.477       .  S
C238        H240   1.082       .  S
N241        N242   1.321       .  A
N241        C245   1.349       .  A
N241       Cu249   2.082   1_565  S
N242        C243   1.341       .  A
N242       Cu248   2.064       .  S
C243        C244   1.381   1_554  A
C243        H246   1.082       .  S
C244        C245   1.386   1_556  A
C245        H247   1.082       .  S
Cu248       N251   2.065       .  S
Cu249       N259   2.083       .  S
Cu250       N252   2.072       .  S
Cu250       N258   2.073       .  S
N251        N252   1.321   1_565  A
N251        C255   1.342       .  A
N252        C253   1.347       .  A
C253        C254   1.385   1_545  A
C253        H256   1.082       .  S
C254        C255   1.382       .  A
C254        C278   1.471   1_655  S
C255        H257   1.082       .  S
N258        N259   1.324       .  A
N258        C262   1.344       .  A
N259        C260   1.346       .  A
C260        C261   1.382       .  A
C260        H263   1.082       .  S
C261        C262   1.384       .  A
C261        C542   1.477       .  S
C262        H264   1.081       .  S
N265        N266   1.320       .  A
N265        C269   1.349       .  A
N265       Cu273   2.069   1_565  S
N266        C267   1.338       .  A
N266       Cu272   2.060       .  S
C267        C268   1.380   1_554  A
C267        H270   1.082       .  S
C268        C269   1.385   1_556  A
C269        H271   1.082       .  S
Cu272       N275   2.061       .  S
Cu273       N283   2.071       .  S
Cu274       N276   2.074       .  S
Cu274       N282   2.076       .  S
N275        N276   1.320   1_565  A
N275        C279   1.341       .  A
N276        C277   1.348       .  A
C277        C278   1.386   1_545  A
C277        H280   1.082       .  S
C278        C279   1.382       .  A
C279        H281   1.082       .  S
N282        N283   1.324       .  A
N282        C286   1.344       .  A
N283        C284   1.344       .  A
C284        C285   1.379       .  A
C284        H287   1.082       .  S
C285        C286   1.384       .  A
C285        C537   1.473       .  S
C286        H288   1.081       .  S
N289        N290   1.323       .  A
N289        C293   1.353       .  A
N289       Cu297   2.092       .  S
N290        C291   1.341       .  A
N290       Cu296   2.077       .  S
C291        C292   1.382       .  A
C291        H294   1.082       .  S
C292        C293   1.389       .  A
C292        C340   1.475       .  S
C293        H295   1.082       .  S
Cu296       N299   2.075       .  S
Cu297       N307   2.093       .  S
Cu298       N300   2.066       .  S
Cu298       N306   2.068       .  S
N299        N300   1.320       .  A
N299        C303   1.344       .  A
N300        C301   1.347       .  A
C301        C302   1.384       .  A
C301        H304   1.082       .  S
C302        C303   1.385       .  A
C302        C326   1.473   1_655  S
C303        H305   1.082       .  S
N306        N307   1.324       .  A
N306        C310   1.343       .  A
N307        C308   1.348       .  A
C308        C309   1.388       .  A
C308        H311   1.081       .  S
C309        C310   1.378       .  A
C309        C533   1.476       .  S
C310        H312   1.082       .  S
N313        N314   1.323       .  A
N313        C317   1.349       .  A
N313       Cu321   2.089       .  S
N314        C315   1.341       .  A
N314       Cu320   2.061       .  S
C315        C316   1.379       .  A
C315        H318   1.082       .  S
C316        C317   1.386       .  A
C316        C364   1.466       .  S
C317        H319   1.082       .  S
Cu320       N323   2.060       .  S
Cu321       N331   2.090       .  S
Cu322       N324   2.073       .  S
Cu322       N330   2.073       .  S
N323        N324   1.320       .  A
N323        C327   1.342       .  A
N324        C325   1.347       .  A
C325        C326   1.387       .  A
C325        H328   1.082       .  S
C326        C327   1.382       .  A
C327        H329   1.082       .  S
N330        N331   1.324       .  A
N330        C334   1.343       .  A
N331        C332   1.349       .  A
C332        C333   1.386       .  A
C332        H335   1.082       .  S
C333        C334   1.383       .  A
C333        C529   1.480       .  S
C334        H336   1.081       .  S
N337        N338   1.322       .  A
N337        C341   1.354       .  A
N337       Cu345   2.104       .  S
N338        C339   1.340       .  A
N338       Cu344   2.065       .  S
C339        C340   1.379   1_554  A
C339        H342   1.082   1_554  S
C340        C341   1.392   1_556  A
C341        H343   1.082   1_554  S
Cu344       N347   2.066       .  S
Cu345       N355   2.106       .  S
Cu346       N348   2.079       .  S
Cu346       N354   2.082       .  S
N347        N348   1.320       .  A
N347        C351   1.341       .  A
N348        C349   1.350       .  A
C349        C350   1.387       .  A
C349        H352   1.082       .  S
C350        C351   1.382       .  A
C350        C374   1.474   1_655  S
C351        H353   1.082       .  S
N354        N355   1.326       .  A
N354        C358   1.345       .  A
N355        C356   1.350       .  A
C356        C357   1.387       .  A
C356        H359   1.082       .  S
C357        C358   1.386       .  A
C357        C525   1.487       .  S
C358        H360   1.081       .  S
N361        N362   1.321       .  A
N361        C365   1.350   1_554  A
N361       Cu369   2.089       .  S
N362        C363   1.341       .  A
N362       Cu368   2.056       .  S
C363        C364   1.378   1_554  A
C363        H366   1.082   1_554  S
C364        C365   1.387       .  A
C365        H367   1.082       .  S
Cu368       N371   2.057       .  S
Cu369       N379   2.090       .  S
Cu370       N372   2.078       .  S
Cu370       N378   2.079       .  S
N371        N372   1.320       .  A
N371        C375   1.340       .  A
N372        C373   1.350       .  A
C373        C374   1.388       .  A
C373        H376   1.082       .  S
C374        C375   1.381       .  A
C375        H377   1.082       .  S
N378        N379   1.325       .  A
N378        C382   1.345       .  A
N379        C380   1.347       .  A
C380        C381   1.384       .  A
C380        H383   1.082       .  S
C381        C382   1.384       .  A
C381        C521   1.479       .  S
C382        H384   1.081       .  S
N385        C390   1.355       .  A
N385        C389   1.354       .  A
N385        H417   1.037       .  S
N386        C393   1.353       .  A
N386        C394   1.353       .  A
N387        C392   1.356       .  A
N387        C391   1.354       .  A
N387        H418   1.034       .  S
N388        C395   1.351       .  A
N388        C396   1.352       .  A
C389        C397   1.387       .  A
C389        C405   1.417       .  A
C390        C406   1.416       .  A
C390        C398   1.387       .  A
C391        C399   1.388       .  A
C391        C408   1.419       .  A
C392        C407   1.422       .  A
C392        C400   1.388       .  A
C393        C405   1.414       .  A
C393        C401   1.385       .  A
C394        C408   1.418       .  A
C394        C402   1.388       .  A
C395        C403   1.386       .  A
C395        C406   1.412       .  A
C396        C404   1.387       .  A
C396        C407   1.415       .  A
C397        C398   1.375       .  A
C397        H409   1.082       .  S
C398        H410   1.082       .  S
C399        C400   1.374       .  A
C399        H411   1.082       .  S
C400        H412   1.081       .  S
C401        C402   1.371       .  A
C401        H413   1.082       .  S
C402        H414   1.081       .  S
C403        C404   1.373       .  A
C403        H415   1.082       .  S
C404        H416   1.082       .  S
C405        C546   1.490       .  S
C406        C530   1.483       .  S
C407        C558   1.490       .  S
C408        C581   1.487       .  S
N419        C424   1.355       .  A
N419        C423   1.354       .  A
N419        H451   1.034       .  S
N420        C427   1.353       .  A
N420        C428   1.353       .  A
N421        C426   1.354       .  A
N421        C425   1.355       .  A
N421        H452   1.037       .  S
N422        C429   1.353       .  A
N422        C430   1.352       .  A
C423        C431   1.387       .  A
C423        C439   1.418       .  A
C424        C440   1.420       .  A
C424        C432   1.388       .  A
C425        C433   1.386       .  A
C425        C442   1.417       .  A
C426        C441   1.418       .  A
C426        C434   1.388       .  A
C427        C439   1.417       .  A
C427        C435   1.387       .  A
C428        C442   1.416       .  A
C428        C436   1.386       .  A
C429        C437   1.387       .  A
C429        C440   1.415       .  A
C430        C438   1.386       .  A
C430        C441   1.413       .  A
C431        C432   1.373       .  A
C431        H443   1.082       .  S
C432        H444   1.081       .  S
C433        C434   1.372       .  A
C433        H445   1.082       .  S
C434        H446   1.082       .  S
C435        C436   1.372       .  A
C435        H447   1.082       .  S
C436        H448   1.082       .  S
C437        C438   1.372       .  A
C437        H449   1.082       .  S
C438        H450   1.082       .  S
C439        C550   1.487       .  S
C440        C534   1.487       .  S
C441        C554   1.486       .  S
C442        C578   1.491       .  S
N453        C458   1.353       .  A
N453        C457   1.352       .  A
N453        H485   1.036       .  S
N454        C461   1.353       .  A
N454        C462   1.352       .  A
N455        C460   1.354       .  A
N455        C459   1.353       .  A
N455        H486   1.037       .  S
N456        C463   1.352       .  A
N456        C464   1.351       .  A
C457        C465   1.386       .  A
C457        C473   1.413       .  A
C458        C474   1.418       .  A
C458        C466   1.389       .  A
C459        C467   1.386       .  A
C459        C476   1.417       .  A
C460        C475   1.419       .  A
C460        C468   1.388       .  A
C461        C473   1.415       .  A
C461        C469   1.386       .  A
C462        C476   1.414       .  A
C462        C470   1.386       .  A
C463        C471   1.387       .  A
C463        C474   1.414       .  A
C464        C472   1.387       .  A
C464        C475   1.414       .  A
C465        C466   1.374       .  A
C465        H477   1.083       .  S
C466        H478   1.081       .  S
C467        C468   1.376       .  A
C467        H479   1.082       .  S
C468        H480   1.081       .  S
C469        C470   1.371       .  A
C469        H481   1.082       .  S
C470        H482   1.082       .  S
C471        C472   1.371       .  A
C471        H483   1.082       .  S
C472        H484   1.082       .  S
C473        C570   1.484       .  S
C474        C538   1.484       .  S
C475        C522   1.487       .  S
C476        C566   1.487       .  S
N487        C492   1.356       .  A
N487        C491   1.357       .  A
N487        H519   1.040       .  S
N488        C495   1.352       .  A
N488        C496   1.353       .  A
N489        C494   1.352       .  A
N489        C493   1.352       .  A
N489        H520   1.040       .  S
N490        C497   1.354       .  A
N490        C498   1.354       .  A
C491        C499   1.385       .  A
C491        C507   1.421       .  A
C492        C508   1.423       .  A
C492        C500   1.389       .  A
C493        C501   1.387       .  A
C493        C510   1.415       .  A
C494        C509   1.416       .  A
C494        C502   1.389       .  A
C495        C507   1.414       .  A
C495        C503   1.387       .  A
C496        C510   1.413       .  A
C496        C504   1.386       .  A
C497        C505   1.389       .  A
C497        C508   1.421       .  A
C498        C506   1.385       .  A
C498        C509   1.418       .  A
C499        C500   1.375       .  A
C499        H511   1.082       .  S
C500        H512   1.082       .  S
C501        C502   1.374       .  A
C501        H513   1.082       .  S
C502        H514   1.082       .  S
C503        C504   1.370       .  A
C503        H515   1.082       .  S
C504        H516   1.082       .  S
C505        C506   1.371       .  A
C505        H517   1.081       .  S
C506        H518   1.082       .  S
C507        C526   1.493       .  S
C508        C562   1.494       .  S
C509        C574   1.487       .  S
C510        C541   1.484       .  S
C521        C522   1.344       .  D
C521        H523   1.087       .  S
C522        H524   1.085       .  S
C525        C526   1.346       .  D
C525        H527   1.086       .  S
C526        H528   1.085       .  S
C529        C530   1.345       .  D
C529        H531   1.087       .  S
C530        H532   1.084       .  S
C533        C534   1.341       .  D
C533        H535   1.087       .  S
C534        H536   1.085       .  S
C537        C538   1.342       .  D
C537        H539   1.087       .  S
C538        H540   1.085       .  S
C541        C542   1.342       .  D
C541        H543   1.085       .  S
C542        H544   1.087       .  S
C545        C546   1.344       .  D
C545        H547   1.087       .  S
C546        H548   1.086       .  S
C549        C550   1.344       .  D
C549        H551   1.087       .  S
C550        H552   1.085       .  S
C553        C554   1.341       .  D
C553        H555   1.087       .  S
C554        H556   1.086       .  S
C557        C558   1.343       .  D
C557        H559   1.087       .  S
C558        H560   1.085       .  S
C561        C562   1.345       .  D
C561        H563   1.087       .  S
C562        H564   1.085       .  S
C565        C566   1.343       .  D
C565        H567   1.087       .  S
C566        H568   1.086       .  S
C569        C570   1.343       .  D
C569        H571   1.087       .  S
C570        H572   1.085       .  S
C573        C574   1.341       .  D
C573        H575   1.087       .  S
C574        H576   1.085       .  S
C577        C578   1.344       .  D
C577        H579   1.087       .  S
C578        H580   1.086       .  S
C581        C582   1.342       .  D
C581        H583   1.085       .  S
C582        H584   1.087       .  S
