geometry optimzed in LAMMPS
_audit_creation_date              2020-11-30 
_audit_creation_method            'lammps2cif' 
_symmetry_space_group_name_H-M    'P1' 
_symmetry_Int_Tables_number       1 
_symmetry_cell_setting            triclinic 
loop_ 
_symmetry_equiv_pos_as_xyz 
  x,y,z 
_cell_length_a                    27.2694953 
_cell_length_b                    28.598808205956882 
_cell_length_c                    29.193938515478276 
_cell_angle_alpha                 89.67852013171951 
_cell_angle_beta                  99.2958116416049 
_cell_angle_gamma                 90.17762259937275 
loop_ 
_atom_site_label 
_atom_site_type_symbol 
_atom_site_fract_x 
_atom_site_fract_y 
_atom_site_fract_z 
_atom_site_charge 
C1          C  0.28681362  0.40810868  0.87108045     0.86700
C2          C  0.25440209  0.43554615  0.89992495    -0.53600
C3          C  0.25583181  0.41908995  0.94435444     0.09600
C4          C  0.29033546  0.37626242  0.95527745     0.20500
C5          C  0.33935016  0.40893645  0.89985383    -0.54300
C6          C  0.34095280  0.39231067  0.94409750     0.09700
C7          C  0.27025139  0.35711302  0.87347619    -0.53800
C8          C  0.27230373  0.34036419  0.91737562     0.10300
H9          H  0.23258828  0.46529936  0.88560101     0.14800
H10         H  0.29290904  0.36109386  0.99054325     0.00500
H11         H  0.37224783  0.42056943  0.88642031     0.15100
H12         H  0.26089765  0.33516281  0.84302257     0.14900
C13         C  0.44249270  0.38451467  0.05147508     0.86700
C14         C  0.48137737  0.40749796  0.02580321    -0.53600
C15         C  0.47646265  0.39639427  0.97955637     0.09600
C16         C  0.43354020  0.36137897  0.96423109     0.20500
C17         C  0.39213032  0.39792049  0.02281822    -0.54300
C18         C  0.38751944  0.38582530  0.97713484     0.09700
C19         C  0.44726935  0.33211085  0.04371881    -0.53800
C20         C  0.44241667  0.31960541  0.99828538     0.10300
H21         H  0.99871354  0.46492148  0.04196848     0.14800
H22         H  0.42818560  0.35049930  0.92741888     0.00500
H23         H  0.36253132  0.41473735  0.03741574     0.15100
H24         H  0.45230553  0.30671088  0.07191002     0.14900
O25         O  0.21872536  0.93316279  0.02065087    -0.71600
O26         O  0.20138015  0.92860402  0.88887640    -0.71800
O27         O  0.20570475  0.86494300  0.95800373    -0.71700
O28         O  0.21474074  0.99737898  0.95258966    -0.71700
O29         O  0.29453451  0.99206459  0.95420338    -0.71700
O30         O  0.28562475  0.85950534  0.96079576    -0.71700
O31         O  0.28135378  0.92393738  0.89168826    -0.71600
O32         O  0.29881221  0.92939260  0.02395075    -0.71800
V33         V  0.21172000  0.93094169  0.95494887     1.35200
V34         V  0.28855618  0.92614736  0.95769239     1.35200
C35         C  0.26159470  0.93213813  0.04472752     0.77600
C36         C  0.23836313  0.92641650  0.86782489     0.77700
C37         C  0.24407456  0.83974534  0.96107943     0.77600
C38         C  0.25617462  0.01712195  0.95206972     0.77500
O39         O  0.43724432  0.90370077  0.02432741    -0.71600
O40         O  0.41918510  0.90459696  0.89200978    -0.71800
O41         O  0.43683670  0.83815953  0.95879531    -0.71700
O42         O  0.41964268  0.97030770  0.95832151    -0.71700
O43         O  0.04334278  0.00371999  0.96243075    -0.71700
O44         O  0.05018051  0.87168597  0.95490473    -0.71700
O45         O  0.03905520  0.94143016  0.89267073    -0.71600
O46         O  0.05412777  0.93392321  0.02426186    -0.71800
V47         V  0.42968003  0.90439599  0.95833441     1.35200
V48         V  0.04524517  0.93761508  0.95841617     1.35200
C49         C  0.01627141  0.93557773  0.04415001     0.77600
C50         C  0.45641901  0.90779842  0.87126867     0.77700
C51         C  0.01224731  0.84682199  0.95696170     0.77600
C52         C  0.45616146  0.99740449  0.95708640     0.77500
C53         C  0.19576876  0.45114637  0.05171368     0.86700
C54         C  0.14346323  0.44529026  0.02346972    -0.53600
C55         C  0.13975458  0.46045314  0.97868687     0.09600
C56         C  0.18846670  0.48020161  0.96609946     0.20500
C57         C  0.23031314  0.42554532  0.02358499    -0.54300
C58         C  0.22669785  0.44033177  0.97831599     0.09700
C59         C  0.20787627  0.50307940  0.04704902    -0.53800
C60         C  0.20411626  0.51842806  0.00245776     0.10300
H61         H  0.11180749  0.43125582  0.03722282     0.14800
H62         H  0.18392587  0.49391846  0.93014792     0.00500
H63         H  0.25522309  0.39830996  0.03902401     0.15100
H64         H  0.21723806  0.52618918  0.07661956     0.14900
C65         C  0.03391446  0.46197140  0.87453499     0.86700
C66         C  0.08615822  0.45132145  0.90112265    -0.53600
C67         C  0.09177008  0.46263239  0.94709048     0.09600
C68         C  0.04494163  0.48330938  0.96221838     0.20500
C69         C  0.99807854  0.43591792  0.90124772    -0.54300
C70         C  0.00372932  0.44648487  0.94761931     0.09700
C71         C  0.02620677  0.51376653  0.88350913    -0.53800
C72         C  0.03218003  0.52508618  0.92922026     0.10300
H73         H  0.11627574  0.43750475  0.88504502     0.14800
H74         H  0.05090205  0.49366746  0.99919581     0.00500
H75         H  0.48167255  0.37792627  0.88542095     0.15100
H76         H  0.01919240  0.53982117  0.85598875     0.14900
C77         C  0.03562643  0.91324463  0.36440797     0.86700
C78         C  0.00420729  0.94199774  0.39317785    -0.53600
C79         C  0.00745958  0.92710130  0.43833424     0.09600
C80         C  0.04284052  0.88484385  0.44988881     0.20500
C81         C  0.08879215  0.91541541  0.39158261    -0.54300
C82         C  0.09235016  0.90097659  0.43652342     0.09700
C83         C  0.01884974  0.86251113  0.36927092    -0.53800
C84         C  0.02311482  0.84747919  0.41403049     0.10300
H85         H  0.46938632  0.93795897  0.38246380     0.14800
H86         H  0.04701436  0.87098589  0.48571706     0.00500
H87         H  0.12058473  0.92806872  0.37699427     0.15100
H88         H  0.00651169  0.83994700  0.33981333     0.14900
C89         C  0.19469865  0.90950098  0.54326494     0.86700
C90         C  0.22764123  0.93956760  0.51660234    -0.53600
C91         C  0.22519645  0.92758530  0.47064231     0.09600
C92         C  0.18934743  0.88608377  0.45639508     0.20500
C93         C  0.14227356  0.91363238  0.51490842    -0.54300
C94         C  0.13951075  0.90125495  0.46950424     0.09700
C95         C  0.21070699  0.85912190  0.53625917    -0.53800
C96         C  0.20739657  0.84663415  0.49095486     0.10300
H97         H  0.25048866  0.96757008  0.53331065     0.14800
H98         H  0.18624828  0.87462028  0.41989311     0.00500
H99         H  0.11018318  0.92515923  0.52950847     0.15100
H100        H  0.22204335  0.83486063  0.56476049     0.14900
O101        O  0.28570526  0.43976549  0.39833681    -0.71600
O102        O  0.30276737  0.44184107  0.53042855    -0.71800
O103        O  0.30008564  0.37470746  0.46517264    -0.71700
O104        O  0.28862075  0.50685814  0.46335605    -0.71700
O105        O  0.20815432  0.50063951  0.45370561    -0.71700
O106        O  0.22122649  0.36824802  0.46817237    -0.71700
O107        O  0.22249403  0.44098750  0.52648953    -0.71600
O108        O  0.20655442  0.42765202  0.39554201    -0.71800
V109        V  0.29279548  0.44067492  0.46424772     1.35200
V110        V  0.21608280  0.43454071  0.46109624     1.35200
C111        C  0.24339978  0.43199898  0.37460409     0.77600
C112        C  0.26521950  0.44282488  0.55083434     0.77700
C113        C  0.26278350  0.34896458  0.46729679     0.77600
C114        C  0.24650455  0.52627498  0.45763324     0.77500
O115        O  0.02161980  0.44161839  0.39975614    -0.71600
O116        O  0.03658170  0.43196606  0.53119367    -0.71800
O117        O  0.02483687  0.37026151  0.46107970    -0.71700
O118        O  0.03301497  0.50311965  0.47010956    -0.71700
O119        O  0.46916984  0.48423915  0.45943908    -0.71700
O120        O  0.46159141  0.35239057  0.46579760    -0.71700
O121        O  0.47467721  0.42079767  0.52816832    -0.71600
O122        O  0.45600075  0.41504121  0.39662228    -0.71800
V123        V  0.02769795  0.43680006  0.46543060     1.35200
V124        V  0.46686395  0.41811135  0.46249260     1.35200
C125        C  0.49277764  0.41666556  0.37530032     0.77600
C126        C  0.99970086  0.43872176  0.55156479     0.77700
C127        C  0.49927724  0.32749956  0.46374984     0.77600
C128        C  0.99377949  0.52740333  0.46255335     0.77500
C129        C  0.29200626  0.96437515  0.36788135     0.86700
C130        C  0.34188902  0.95174309  0.39763428    -0.53600
C131        C  0.34492803  0.96345899  0.44319165     0.09600
C132        C  0.29771259  0.98652488  0.45508739     0.20500
C133        C  0.25263497  0.94004701  0.39225715    -0.54300
C134        C  0.25583978  0.95090983  0.43857076     0.09700
C135        C  0.28555562  0.01662012  0.37599457    -0.53800
C136        C  0.28835655  0.02835708  0.42144962     0.10300
H137        H  0.37235689  0.93560789  0.38377697     0.14800
H138        H  0.30185108  0.99728982  0.49185325     0.00500
H139        H  0.22590378  0.91567393  0.37421901     0.15100
H140        H  0.28046086  0.04240722  0.34815577     0.14900
C141        C  0.44311740  0.94270516  0.55123097     0.86700
C142        C  0.39107763  0.94258059  0.52167782    -0.53600
C143        C  0.39084203  0.95738959  0.47710013     0.09600
C144        C  0.44234002  0.97113857  0.46628867     0.20500
C145        C  0.47529968  0.91282604  0.52403680    -0.54300
C146        C  0.47529529  0.92769828  0.47923303     0.09700
C147        C  0.46178350  0.99282736  0.54744479    -0.53800
C148        C  0.46125363  0.00768540  0.50311011     0.10300
H149        H  0.35749142  0.93247184  0.53479788     0.14800
H150        H  0.44124845  0.98502571  0.43065629     0.00500
H151        H  0.01067206  0.90819713  0.53326251     0.15100
H152        H  0.47154028  0.01568029  0.57717084     0.14900
C153        C  0.46522042  0.21219079  0.48069950     0.29900
C154        C  0.43530902  0.17687535  0.49462704    -0.36400
C155        C  0.45218228  0.13130526  0.49092199     0.15900
C156        C  0.49594993  0.12083875  0.47514264     0.21700
C157        C  0.01003811  0.17905587  0.45192614    -0.34500
C158        C  0.50947377  0.20235037  0.46553629     0.15800
O159        O  0.45596176  0.25715494  0.48123710    -0.26500
C160        C  0.49488829  0.27670331  0.46666234     0.05600
C161        C  0.01277111  0.26729592  0.45105844    -0.31400
O162        O  0.50485917  0.07546428  0.47587915    -0.23200
C163        C  0.46625077  0.05730646  0.49242507    -0.03200
C164        C  0.43243778  0.09025111  0.50236513    -0.17700
H165        H  0.40146672  0.18445893  0.50802021     0.20300
H166        H  0.04143613  0.17274037  0.43439842     0.18700
H167        H  0.04403110  0.27495603  0.43362491     0.18600
H168        H  0.39873281  0.08462411  0.51682876     0.14500
C169        C  0.29586045  0.23282143  0.45146583     0.29900
C170        C  0.32308783  0.19718603  0.43463350    -0.36400
C171        C  0.30546746  0.15160524  0.43886232     0.15900
C172        C  0.26375625  0.14145291  0.45832219     0.21700
C173        C  0.23586755  0.17735807  0.47452450    -0.34500
C174        C  0.25344940  0.22321555  0.47003516     0.15800
O175        O  0.30520569  0.27791674  0.44954316    -0.26500
C176        C  0.26802331  0.29783421  0.46649662     0.05600
C177        C  0.23446482  0.26557393  0.47971043    -0.31400
O178        O  0.25300184  0.09627589  0.45681936    -0.23200
C179        C  0.28826870  0.07764620  0.43597111    -0.03200
C180        C  0.32172055  0.11041899  0.42397371    -0.17700
H181        H  0.35534223  0.20460405  0.41850028     0.20300
H182        H  0.20224147  0.17015493  0.48859489     0.18700
H183        H  0.20072070  0.27240064  0.49359306     0.18600
H184        H  0.35263327  0.10473854  0.40560614     0.14500
C185        C  0.24771773  0.73149048  0.48222265     0.29900
C186        C  0.27764459  0.69238837  0.49524630    -0.36400
C187        C  0.25991254  0.64973116  0.47578812     0.15900
C188        C  0.21523527  0.64542328  0.44619220     0.21700
C189        C  0.18577915  0.68489026  0.43217813    -0.34500
C190        C  0.20407079  0.72790004  0.45100362     0.15800
O191        O  0.25544905  0.77394736  0.49914963    -0.26500
C192        C  0.21698663  0.79832609  0.47768619     0.05600
C193        C  0.18389323  0.77167661  0.44706198    -0.31400
O194        O  0.20421682  0.60137474  0.43524902    -0.23200
C195        C  0.24290608  0.57756417  0.45748463    -0.03200
C196        C  0.27874867  0.60589833  0.48286592    -0.17700
H197        H  0.31175542  0.69484351  0.51989440     0.20300
H198        H  0.15045983  0.68209905  0.40931918     0.18700
H199        H  0.14852441  0.78232027  0.42743668     0.18600
H200        H  0.31272777  0.59538975  0.50499359     0.14500
C201        C  0.97788643  0.64709684  0.43915499     0.29900
C202        C  0.46528473  0.66563479  0.43972046    -0.36400
C203        C  0.98244158  0.72874670  0.42425347     0.15900
C204        C  0.02595329  0.73216386  0.45566014     0.21700
C205        C  0.04759825  0.69262885  0.47942335    -0.34500
C206        C  0.02221699  0.65019775  0.46947140     0.15800
O207        O  0.47468871  0.58196634  0.44890264    -0.26500
C208        C  0.99594481  0.57866971  0.46050065     0.05600
C209        C  0.03473822  0.60564090  0.48345412    -0.31400
O210        O  0.04492921  0.77472493  0.45753044    -0.23200
C211        C  0.01360153  0.79864809  0.42641429    -0.03200
C212        C  0.97409949  0.77184713  0.40452819    -0.17700
H213        H  0.42797635  0.66435589  0.42029966     0.20300
H214        H  0.08270499  0.69454428  0.50272844     0.18700
H215        H  0.06772576  0.59397131  0.50633037     0.18600
H216        H  0.44565106  0.76266631  0.41021248     0.14500
C217        C  0.50172998  0.41602821  0.66864291     0.29900
C218        C  0.47519814  0.42269682  0.70520672    -0.36400
C219        C  0.99330283  0.45283597  0.75062132     0.15900
C220        C  0.04139059  0.43615656  0.75723804     0.21700
C221        C  0.06476071  0.42442889  0.71940178    -0.34500
C222        C  0.03645345  0.43110824  0.67523479     0.15800
O223        O  0.48344566  0.41988515  0.62426239    -0.26500
C224        C  0.00530880  0.43862299  0.60239049     0.05600
C225        C  0.04813651  0.42492484  0.63202241    -0.31400
O226        O  0.06183101  0.43539068  0.80141761    -0.23200
C227        C  0.02623109  0.45157675  0.82334913    -0.03200
C228        C  0.48857244  0.42758144  0.79188296    -0.17700
H229        H  0.43619527  0.43120880  0.69877772     0.20300
H230        H  0.10263872  0.41187865  0.72408504     0.18700
H231        H  0.08282688  0.41260504  0.62300007     0.18600
H232        H  0.45236217  0.43812602  0.79875769     0.14500
C233        C  0.23758463  0.43127213  0.17107354     0.29900
C234        C  0.27211620  0.43450079  0.21204646    -0.36400
C235        C  0.25301221  0.42922088  0.25350795     0.15900
C236        C  0.20332511  0.42098534  0.25471686     0.21700
C237        C  0.16883024  0.41691124  0.21360112    -0.34500
C238        C  0.18799327  0.42245891  0.17202396     0.15800
O239        O  0.24668101  0.43997437  0.12892690    -0.26500
C240        C  0.20247431  0.43658356  0.10212344     0.05600
C241        C  0.16452009  0.42523667  0.12719185    -0.31400
O242        O  0.19325314  0.42027396  0.29745983    -0.23200
C243        C  0.23710579  0.42814488  0.32380208    -0.03200
C244        C  0.27560081  0.43373522  0.29832034    -0.17700
H245        H  0.31083327  0.44266718  0.21165621     0.20300
H246        H  0.12956367  0.41174138  0.21402165     0.18700
H247        H  0.12496688  0.42282980  0.11519538     0.18600
H248        H  0.31432290  0.44137621  0.31095092     0.14500
C249        C  0.01375263  0.63970857  0.96357202     0.29900
C250        C  0.45691361  0.64871546  0.96560011    -0.36400
C251        C  0.47414420  0.69490456  0.96313399     0.15900
C252        C  0.04371968  0.72963872  0.94609332     0.21700
C253        C  0.07042125  0.69240446  0.93149648    -0.34500
C254        C  0.05385917  0.64762757  0.94107403     0.15800
O255        O  0.47900533  0.56813369  0.95154975    -0.26500
C256        C  0.03572273  0.57419289  0.94369435     0.05600
C257        C  0.06863777  0.60523749  0.92802015    -0.31400
O258        O  0.05229718  0.77430152  0.93969227    -0.23200
C259        C  0.01629794  0.79577970  0.95701824    -0.03200
C260        C  0.45231840  0.73663091  0.96996623    -0.17700
H261        H  0.42104998  0.64073541  0.97510968     0.20300
H262        H  0.10127877  0.69796931  0.91295240     0.18700
H263        H  0.09729172  0.59772715  0.90742725     0.18600
H264        H  0.41602631  0.74248246  0.97936046     0.14500
C265        C  0.47312821  0.91315746  0.75528857     0.29900
C266        C  0.02935463  0.94456041  0.71137988    -0.36400
C267        C  0.47348681  0.92001688  0.67434515     0.15900
C268        C  0.42234469  0.91666300  0.66540533     0.21700
C269        C  0.39454750  0.91098527  0.70169488    -0.34500
C270        C  0.42197082  0.90953201  0.74681053     0.15800
O271        O  0.02767741  0.94132350  0.79417059    -0.26500
C272        C  0.45160654  0.90817350  0.82046093     0.05600
C273        C  0.40720318  0.90611453  0.78929718    -0.31400
O274        O  0.40450245  0.92186405  0.62084974    -0.23200
C275        C  0.44487021  0.92849925  0.60119880    -0.03200
C276        C  0.48875916  0.92740002  0.63290330    -0.17700
H277        H  0.06825203  0.95380787  0.71431986     0.20300
H278        H  0.35443891  0.90863905  0.69524771     0.18700
H279        H  0.36974540  0.90330893  0.79686865     0.18600
H280        H  0.04192546  0.96184231  0.61474630     0.14500
C281        C  0.05228648  0.93754567  0.24934700     0.29900
C282        C  0.07933627  0.93978811  0.21241820    -0.36400
C283        C  0.05119518  0.93898595  0.16781298     0.15900
C284        C  0.47364537  0.90030264  0.16667182     0.21700
C285        C  0.45201425  0.88997433  0.20607635    -0.34500
C286        C  0.00104804  0.93540165  0.24161744     0.15800
O287        O  0.07117825  0.93308370  0.29356847    -0.26500
C288        C  0.03156530  0.92781614  0.31444462     0.05600
C289        C  0.98688224  0.92940997  0.28381604    -0.31400
O290        O  0.45164668  0.89780643  0.12300158    -0.23200
C291        C  0.02079849  0.93632935  0.09472085    -0.03200
C292        C  0.06550765  0.93845935  0.12524294    -0.17700
H293        H  0.11948872  0.94056870  0.21811127     0.20300
H294        H  0.41363290  0.87901216  0.20341369     0.18700
H295        H  0.44080678  0.87346110  0.30374707     0.18600
H296        H  0.10289428  0.93936539  0.11721884     0.14500
C297        C  0.21025339  0.72438799  0.98217442     0.29900
C298        C  0.18066781  0.68920980  0.99725899    -0.36400
C299        C  0.19638208  0.64320701  0.99244383     0.15900
C300        C  0.23853311  0.63225564  0.97418354     0.21700
C301        C  0.26900108  0.66766360  0.96014903    -0.34500
C302        C  0.25323218  0.71392917  0.96505849     0.15800
O303        O  0.20152733  0.76963174  0.98262547    -0.26500
C304        C  0.23969511  0.78876963  0.96620237     0.05600
C305        C  0.27341509  0.75587171  0.95504004    -0.31400
O306        O  0.24627501  0.58662692  0.97344674    -0.23200
C307        C  0.20859286  0.56849941  0.99159845    -0.03200
C308        C  0.17670355  0.60203444  0.00429589    -0.17700
H309        H  0.14759180  0.69719038  0.01178426     0.20300
H310        H  0.30262618  0.65972957  0.94649710     0.18700
H311        H  0.30722783  0.76196930  0.94091118     0.18600
H312        H  0.14420449  0.59670654  0.02066677     0.14500
C313        C  0.29772090  0.94713510  0.16492487     0.29900
C314        C  0.32791279  0.96207016  0.20584284    -0.36400
C315        C  0.30848142  0.95542730  0.24714980     0.15900
C316        C  0.26294671  0.93469090  0.24841900     0.21700
C317        C  0.23274248  0.91984836  0.20747585    -0.34500
C318        C  0.25163841  0.92745562  0.16605183     0.15800
O319        O  0.30794829  0.95086841  0.12229919    -0.26500
C320        C  0.26755291  0.93393122  0.09575918     0.05600
C321        C  0.23125464  0.91911250  0.12110157    -0.31400
O322        O  0.25150404  0.93321344  0.29073374    -0.23200
C323        C  0.29010239  0.95360757  0.31695492    -0.03200
C324        C  0.32651679  0.96820069  0.29150851    -0.17700
H325        H  0.36365815  0.97848295  0.20542644     0.20300
H326        H  0.19666368  0.90415865  0.20776376     0.18700
H327        H  0.19514683  0.90423368  0.10818698     0.18600
H328        H  0.36073151  0.98671360  0.30390956     0.14500
C329        C  0.19803447  0.91782481  0.74772354     0.29900
C330        C  0.16675694  0.90359401  0.70724808    -0.36400
C331        C  0.18284020  0.91449451  0.66518037     0.15900
C332        C  0.22628930  0.93854601  0.66274677     0.21700
C333        C  0.25761969  0.95296003  0.70337090    -0.34500
C334        C  0.24210361  0.94102023  0.74564176     0.15800
O335        O  0.19079859  0.90986478  0.79070852    -0.26500
C336        C  0.23118307  0.92734292  0.81670111     0.05600
C337        C  0.26447961  0.94714166  0.79057701    -0.31400
O338        O  0.23533500  0.94248107  0.61967647    -0.23200
C339        C  0.19709847  0.92063969  0.59422012    -0.03200
C340        C  0.16357930  0.90238188  0.62096474    -0.17700
H341        H  0.13286747  0.88415622  0.70850965     0.20300
H342        H  0.29237628  0.97092486  0.70216682     0.18700
H343        H  0.29972986  0.96391720  0.80296235     0.18600
H344        H  0.13090252  0.88128144  0.60955934     0.14500
C345        C  0.45017245  0.40372875  0.25600087     0.29900
C346        C  0.41679122  0.39035812  0.21644283    -0.36400
C347        C  0.43375184  0.39553687  0.17379830     0.15900
C348        C  0.48010692  0.41322529  0.17015059     0.21700
C349        C  0.51363798  0.42631002  0.20978101    -0.34500
C350        C  0.49696353  0.42050425  0.25255315     0.15800
O351        O  0.44237828  0.40086127  0.29937243    -0.26500
C352        C  0.48489390  0.41549845  0.32418221     0.05600
C353        C  0.52030997  0.42803492  0.29690401    -0.31400
O354        O  0.48877568  0.41372799  0.12692395    -0.23200
C355        C  0.44747616  0.39598088  0.10248314    -0.03200
C356        C  0.41213885  0.38378715  0.13002536    -0.17700
H357        H  0.38046076  0.37612344  0.21883002     0.20300
H358        H  0.55045178  0.43935699  0.20747454     0.18700
H359        H  0.55775673  0.44067252  0.30814844     0.18600
H360        H  0.37633970  0.36733576  0.11935984     0.14500
C361        C  0.45567020  0.20492054  0.95873052     0.29900
C362        C  0.02329827  0.18516896  0.01502708    -0.36400
C363        C  0.46217360  0.12267958  0.94748402     0.15900
C364        C  0.42633282  0.11417024  0.97494956     0.21700
C365        C  0.40444205  0.15083429  0.99599263    -0.34500
C366        C  0.42074713  0.19599902  0.98704865     0.15800
O367        O  0.46674343  0.24994925  0.95689350    -0.26500
C368        C  0.43875413  0.26980620  0.98474773     0.05600
C369        C  0.40950135  0.23787375  0.00433349    -0.31400
O370        O  0.41822773  0.06916086  0.98055023    -0.23200
C371        C  0.44979640  0.04840665  0.95696595    -0.03200
C372        C  0.02713085  0.09996770  0.99643414    -0.17700
H373        H  0.04898178  0.18461192  0.04743379     0.20300
H374        H  0.37736292  0.14451361  0.01866339     0.18700
H375        H  0.38461725  0.24455621  0.02892509     0.18600
H376        H  0.05321713  0.08647718  0.02536262     0.14500
C377        C  0.30235366  0.44108020  0.75695355     0.29900
C378        C  0.32873318  0.44879792  0.72006407    -0.36400
C379        C  0.30060596  0.44841178  0.67521569     0.14300
C380        C  0.24973041  0.44217124  0.66755304     0.21700
C381        C  0.22323104  0.43561368  0.70440933    -0.34500
C382        C  0.25149231  0.43501747  0.74895978     0.15800
O383        O  0.32178370  0.43488654  0.80104560    -0.26500
C384        C  0.28274223  0.42470322  0.82147592     0.05600
C385        C  0.23805133  0.42484551  0.79071705    -0.31400
O386        O  0.23093327  0.44041796  0.62312246    -0.23200
C387        C  0.27013654  0.44530230  0.60171450    -0.03200
C388        C  0.31462970  0.45059735  0.63234348    -0.17700
H389        H  0.36853389  0.45320177  0.72609836     0.20300
H390        H  0.18356720  0.42935691  0.69855701     0.18700
H391        H  0.20144030  0.41567094  0.79778339     0.18600
H392        H  0.35183094  0.45408996  0.62423122     0.14500
C393        C  0.24567839  0.13900849  0.95502690     0.29900
C394        C  0.22702512  0.18233636  0.96670602    -0.36400
C395        C  0.24844916  0.22204162  0.94939133     0.15900
C396        C  0.28492886  0.21902537  0.92176849     0.21700
C397        C  0.30425744  0.17592979  0.91096638    -0.34500
C398        C  0.28355605  0.13644388  0.92895134     0.15800
O399        O  0.23049940  0.09733011  0.96649646    -0.26500
C400        C  0.25981579  0.06801933  0.94827632     0.05600
C401        C  0.29370547  0.09034717  0.92481325    -0.31400
O402        O  0.29785247  0.26010324  0.90719730    -0.23200
C403        C  0.26996821  0.28996537  0.92626194    -0.03200
C404        C  0.23878975  0.26854552  0.95331775    -0.17700
H405        H  0.19762753  0.18487884  0.98742886     0.20300
H406        H  0.33329833  0.17337011  0.88982969     0.18700
H407        H  0.32107236  0.07475795  0.90657116     0.18600
H408        H  0.21198226  0.28476354  0.97176294     0.14500
C409        C  0.78673522  0.40235436  0.87379417     0.86700
C410        C  0.75299294  0.42977598  0.90145730    -0.53600
C411        C  0.75609788  0.41573422  0.94689473     0.09600
C412        C  0.79339202  0.37519163  0.95976816     0.20500
C413        C  0.83913712  0.40744634  0.90183333    -0.54300
C414        C  0.84250942  0.39347524  0.94690062     0.09700
C415        C  0.77328728  0.35083260  0.87923507    -0.53800
C416        C  0.77696711  0.33651342  0.92416588     0.10300
H417        H  0.72936768  0.45784309  0.88583494     0.14800
H418        H  0.79743315  0.36202638  0.99588560     0.00500
H419        H  0.87066076  0.42124539  0.88756679     0.15100
H420        H  0.76407229  0.32715577  0.85011461     0.14900
C421        C  0.94424112  0.40585967  0.05333785     0.86700
C422        C  0.97665372  0.43597174  0.02613742    -0.53600
C423        C  0.97454411  0.42292315  0.98059571     0.09600
C424        C  0.93973419  0.38052299  0.96729884     0.20500
C425        C  0.89178677  0.40846975  0.02486746    -0.54300
C426        C  0.88948059  0.39506288  0.97992823     0.09700
C427        C  0.96146686  0.35561560  0.04771442    -0.53800
C428        C  0.95873866  0.34209010  0.00273019     0.10300
H429        H  0.50913746  0.43140173  0.04304855     0.14800
H430        H  0.93691902  0.36836035  0.93109543     0.00500
H431        H  0.85932632  0.41984898  0.03897322     0.15100
H432        H  0.97342464  0.33232461  0.07689189     0.14900
O433        O  0.70398749  0.93078060  0.02189570    -0.71600
O434        O  0.69257304  0.92973870  0.89018663    -0.71800
O435        O  0.68963749  0.86397332  0.95698750    -0.71700
O436        O  0.70683103  0.99613251  0.95623746    -0.71700
O437        O  0.78681375  0.98677300  0.96388993    -0.71700
O438        O  0.76916905  0.85473701  0.95992914    -0.71700
O439        O  0.77269236  0.92255702  0.89646302    -0.71600
O440        O  0.78348510  0.91904023  0.02792906    -0.71800
V441        V  0.69976384  0.92989660  0.95629804     1.35200
V442        V  0.77647497  0.92094115  0.96199900     1.35200
C443        C  0.74570924  0.92499282  0.04726699     0.77600
C444        C  0.73083921  0.92672975  0.87093858     0.77700
C445        C  0.72649170  0.83691552  0.95871214     0.77600
C446        C  0.74980608  0.01389146  0.96027985     0.77500
O447        O  0.97377659  0.93687136  0.01949686    -0.71600
O448        O  0.95971225  0.92941719  0.88878523    -0.71800
O449        O  0.97131375  0.86691726  0.95860274    -0.71700
O450        O  0.96264260  0.99968726  0.94975610    -0.71700
O451        O  0.49855723  0.97969171  0.95709405    -0.71700
O452        O  0.51658096  0.84799016  0.96357497    -0.71700
O453        O  0.49909794  0.91133709  0.89525907    -0.71600
O454        O  0.51621437  0.91639577  0.02651943    -0.71800
V455        V  0.96828902  0.93333568  0.95419288     1.35200
V456        V  0.50603046  0.91365514  0.96067676     1.35200
C457        C  0.47987074  0.91015775  0.04784313     0.77600
C458        C  0.99680304  0.93499898  0.86844094     0.77700
C459        C  0.47977314  0.82068014  0.96151417     0.77600
C460        C  0.00181403  0.02418204  0.95673948     0.77500
C461        C  0.69521582  0.44915917  0.05336501     0.86700
C462        C  0.64335575  0.43870141  0.02566813    -0.53600
C463        C  0.63840797  0.45178242  0.98006048     0.09600
C464        C  0.68527776  0.47439500  0.96641745     0.20500
C465        C  0.73161940  0.42493790  0.02624458    -0.54300
C466        C  0.72652247  0.43750587  0.98026913     0.09700
C467        C  0.70278025  0.50147433  0.04615298    -0.53800
C468        C  0.69743895  0.51494817  0.00091158     0.10300
H469        H  0.61317881  0.42268689  0.04020484     0.14800
H470        H  0.67970388  0.48639625  0.92984323     0.00500
H471        H  0.75854006  0.39986876  0.04280292     0.15100
H472        H  0.71023832  0.52618985  0.07459781     0.14900
C473        C  0.53643889  0.43648752  0.87388951     0.86700
C474        C  0.58901394  0.43386163  0.90226391    -0.53600
C475        C  0.59125846  0.44734349  0.94740075     0.09600
C476        C  0.54095764  0.46217402  0.95994771     0.20500
C477        C  0.50394399  0.40673984  0.90128496    -0.54300
C478        C  0.50606677  0.41980988  0.94675799     0.09700
C479        C  0.52030006  0.48713993  0.87951529    -0.53800
C480        C  0.52272506  0.50066946  0.92438402     0.10300
H481        H  0.62161096  0.42336246  0.88789919     0.14800
H482        H  0.54384826  0.47481380  0.99605039     0.00500
H483        H  0.97097149  0.41137668  0.88407463     0.15100
H484        H  0.51042914  0.51110894  0.85049203     0.14900
C485        C  0.53048087  0.88570219  0.37244092     0.86700
C486        C  0.49702138  0.91383329  0.39964177    -0.53600
C487        C  0.50436039  0.90453225  0.44642719     0.09600
C488        C  0.54529577  0.86760295  0.46114935     0.20500
C489        C  0.58388975  0.89609931  0.39657918    -0.54300
C490        C  0.59155971  0.88703121  0.44323338     0.09700
C491        C  0.52128862  0.83467246  0.38419941    -0.53800
C492        C  0.52902802  0.82505671  0.43044686     0.10300
H493        H  0.98151855  0.97107557  0.37843284     0.14800
H494        H  0.55220973  0.85862844  0.49856922     0.00500
H495        H  0.61276262  0.90984767  0.37861269     0.15100
H496        H  0.50979983  0.80819893  0.35806127     0.14900
C497        C  0.69653255  0.90630473  0.54676845     0.86700
C498        C  0.72663436  0.93822766  0.51914786    -0.53600
C499        C  0.72437500  0.92596640  0.47340393     0.09600
C500        C  0.69047473  0.88281806  0.45981845     0.20500
C501        C  0.64324749  0.90705227  0.51928852    -0.54300
C502        C  0.64000663  0.89441582  0.47392945     0.09700
C503        C  0.71557912  0.85686771  0.53956027    -0.53800
C504        C  0.71182294  0.84449222  0.49415415     0.10300
H505        H  0.74868801  0.96696958  0.53542582     0.14800
H506        H  0.68720855  0.87108471  0.42341146     0.00500
H507        H  0.61048408  0.91558956  0.53409742     0.15100
H508        H  0.72861689  0.83292271  0.56791656     0.14900
O509        O  0.79084149  0.44085852  0.40157959    -0.71600
O510        O  0.80609502  0.43794466  0.53348368    -0.71800
O511        O  0.80361798  0.37344896  0.46642743    -0.71700
O512        O  0.79357383  0.50553321  0.46852975    -0.71700
O513        O  0.71301345  0.49975809  0.45627438    -0.71700
O514        O  0.72493650  0.36750962  0.47052467    -0.71700
O515        O  0.72573689  0.43981595  0.52873982    -0.71600
O516        O  0.71185353  0.42716160  0.39793425    -0.71800
V517        V  0.79709967  0.43937149  0.46745390     1.35200
V518        V  0.72029769  0.43371998  0.46344476     1.35200
C519        C  0.74881863  0.43297860  0.37739254     0.77600
C520        C  0.76826472  0.43929330  0.55346585     0.77700
C521        C  0.76626368  0.34801350  0.46920765     0.77600
C522        C  0.75156401  0.52515687  0.46150142     0.77500
O523        O  0.53598971  0.41850499  0.39894744    -0.71600
O524        O  0.55381352  0.40885692  0.53112477    -0.71800
O525        O  0.54008787  0.34744246  0.46068540    -0.71700
O526        O  0.54980702  0.47999148  0.46997978    -0.71700
O527        O  0.95235981  0.50652675  0.45571963    -0.71700
O528        O  0.94662628  0.37445330  0.46740963    -0.71700
O529        O  0.95762987  0.44572363  0.52717190    -0.71600
O530        O  0.94162510  0.43491145  0.39588194    -0.71800
V531        V  0.54355954  0.41383189  0.46501723     1.35200
V532        V  0.95091829  0.44035962  0.46159688     1.35200
C533        C  0.97897837  0.43829270  0.37542559     0.77600
C534        C  0.51703711  0.41405942  0.55207101     0.77700
C535        C  0.98446102  0.34980238  0.46495517     0.77600
C536        C  0.51084522  0.50459597  0.46548602     0.77500
C537        C  0.78897661  0.96309292  0.36984550     0.86700
C538        C  0.84046317  0.95392150  0.39873411    -0.53600
C539        C  0.84404363  0.96652421  0.44414424     0.09600
C540        C  0.79567846  0.98671627  0.45681269     0.20500
C541        C  0.75222140  0.93724375  0.39566047    -0.54300
C542        C  0.75530135  0.94908665  0.44151554     0.09700
C543        C  0.77963786  0.01503353  0.37707073    -0.53800
C544        C  0.78329275  0.02755972  0.42245303     0.10300
H545        H  0.87208714  0.94046723  0.38479113     0.14800
H546        H  0.79994520  0.99801778  0.49345261     0.00500
H547        H  0.72625979  0.91185997  0.37824271     0.15100
H548        H  0.77297731  0.04022980  0.34875586     0.14900
C549        C  0.95156740  0.96025480  0.54703276     0.86700
C550        C  0.89826879  0.95323149  0.52110373    -0.53600
C551        C  0.89228148  0.96753911  0.47577723     0.09600
C552        C  0.93985100  0.98788573  0.46095875     0.20500
C553        C  0.98487864  0.93477708  0.51799756    -0.54300
C554        C  0.97920061  0.94881536  0.47256302     0.09700
C555        C  0.96214975  0.01217601  0.54123713    -0.53800
C556        C  0.95584889  0.02688717  0.49639959     0.10300
H557        H  0.86813472  0.93876025  0.53695494     0.14800
H558        H  0.93387280  0.00091368  0.42470069     0.00500
H559        H  0.49575903  0.88268209  0.53940936     0.15100
H560        H  0.97180798  0.03585467  0.57032298     0.14900
C561        C  0.95463766  0.23293766  0.48327963     0.29900
C562        C  0.92788691  0.19630386  0.49960002    -0.36400
C563        C  0.94319335  0.15110897  0.49057265     0.15900
C564        C  0.98244180  0.14224331  0.46737327     0.21700
C565        C  0.52662185  0.15643710  0.46203479    -0.34500
C566        C  0.99463474  0.22448817  0.46094694     0.15800
O567        O  0.94583080  0.27783750  0.48721231    -0.26500
C568        C  0.98100592  0.29866544  0.46775016     0.05600
C569        C  0.52972271  0.24447130  0.45656966    -0.31400
O570        O  0.99098276  0.09700825  0.46399996    -0.23200
C571        C  0.95662681  0.07703220  0.48528063    -0.03200
C572        C  0.92610236  0.10895215  0.50260077    -0.17700
H573        H  0.89713456  0.20261614  0.51799094     0.20300
H574        H  0.56143589  0.14891934  0.45032807     0.18700
H575        H  0.56459429  0.25113084  0.44448640     0.18600
H576        H  0.89662162  0.10194681  0.52249489     0.14500
C577        C  0.79645277  0.23169346  0.45194761     0.29900
C578        C  0.82081499  0.19573589  0.43245668    -0.36400
C579        C  0.80307027  0.15051572  0.43810540     0.15900
C580        C  0.76421460  0.14089866  0.46174069     0.21700
C581        C  0.73933690  0.17711259  0.48092295    -0.34500
C582        C  0.75673510  0.22268671  0.47465926     0.15800
O583        O  0.80574581  0.27662780  0.44865004    -0.26500
C584        C  0.77110768  0.29699997  0.46876352     0.05600
C585        C  0.73939707  0.26528165  0.48561364    -0.31400
O586        O  0.75271646  0.09591606  0.46102161    -0.23200
C587        C  0.78442030  0.07701148  0.43622775    -0.03200
C588        C  0.81649336  0.10927902  0.42114905    -0.17700
H589        H  0.85083599  0.20267864  0.41319381     0.20300
H590        H  0.70774746  0.17038027  0.49819639     0.18700
H591        H  0.70770162  0.27260954  0.50243913     0.18600
H592        H  0.84486110  0.10320047  0.39985421     0.14500
C593        C  0.75400460  0.73086496  0.48058949     0.29900
C594        C  0.78608578  0.69257612  0.48983348    -0.36400
C595        C  0.76653648  0.64917583  0.47392742     0.15900
C596        C  0.71848850  0.64359444  0.45098659     0.21700
C597        C  0.68686289  0.68216318  0.44044354    -0.34500
C598        C  0.70666982  0.72573870  0.45582466     0.15800
O599        O  0.76293600  0.77372645  0.49616742    -0.26500
C600        C  0.72127191  0.79656248  0.48013389     0.05600
C601        C  0.68513372  0.76871513  0.45446217    -0.31400
O602        O  0.70667255  0.59924853  0.44296568    -0.23200
C603        C  0.74798292  0.57636612  0.46041029    -0.03200
C604        C  0.78651038  0.60565592  0.47970434    -0.17700
H605        H  0.82305150  0.69608903  0.50960736     0.20300
H606        H  0.64893816  0.67827524  0.42296302     0.18700
H607        H  0.64738130  0.77812208  0.43990241     0.18600
H608        H  0.82313282  0.59602924  0.49733955     0.14500
C609        C  0.49122090  0.62504827  0.45569547     0.29900
C610        C  0.95638398  0.68657321  0.41522618    -0.36400
C611        C  0.49151202  0.70765188  0.44811104     0.15900
C612        C  0.53974617  0.70992699  0.47140804     0.21700
C613        C  0.56569381  0.66918089  0.48765756    -0.34500
C614        C  0.53972579  0.62690757  0.47837663     0.15800
O615        O  0.96137143  0.60376339  0.43385708    -0.26500
C616        C  0.51321487  0.55573685  0.46686998     0.05600
C617        C  0.55479306  0.58167923  0.48573793    -0.31400
O618        O  0.55844336  0.75258670  0.47148011    -0.23200
C619        C  0.52171707  0.77761445  0.44774292    -0.03200
C620        C  0.47927233  0.75150150  0.43248251    -0.17700
H621        H  0.92261270  0.68425137  0.39011928     0.20300
H622        H  0.60414499  0.67019123  0.50428626     0.18700
H623        H  0.59090658  0.56903523  0.50181065     0.18600
H624        H  0.94431483  0.78240516  0.37733141     0.14500
C625        C  0.98843926  0.44799987  0.66881618     0.29900
C626        C  0.96520434  0.45980629  0.70654619    -0.36400
C627        C  0.50243823  0.41934951  0.75001105     0.15900
C628        C  0.55266797  0.40987570  0.75846628     0.21700
C629        C  0.57925686  0.40217026  0.72165046    -0.34500
C630        C  0.55184800  0.40598671  0.67656769     0.15800
O631        O  0.96914202  0.45253069  0.62466061    -0.26500
C632        C  0.52217592  0.41232167  0.60298442     0.05600
C633        C  0.56591390  0.40331980  0.63371634    -0.31400
O634        O  0.57139576  0.41238491  0.80309148    -0.23200
C635        C  0.53250238  0.42347986  0.82332392    -0.03200
C636        C  0.98263346  0.46250231  0.79342624    -0.17700
H637        H  0.92829121  0.47466424  0.70172886     0.20300
H638        H  0.61871831  0.39511050  0.72776994     0.18700
H639        H  0.60262911  0.39659296  0.62568530     0.18600
H640        H  0.94891593  0.47759963  0.80199033     0.14500
C641        C  0.74024089  0.43696244  0.17331465     0.29900
C642        C  0.77461881  0.44409429  0.21392717    -0.36400
C643        C  0.75708246  0.43599893  0.25583828     0.15900
C644        C  0.70897698  0.42188433  0.25766300     0.21700
C645        C  0.67477680  0.41417893  0.21699728    -0.34500
C646        C  0.69233717  0.42232339  0.17504494     0.15800
O647        O  0.74764022  0.44602831  0.13069601    -0.26500
C648        C  0.70398450  0.43710816  0.10447051     0.05600
C649        C  0.66819802  0.42175589  0.13035154    -0.31400
O650        O  0.69981091  0.41866316  0.30055952    -0.23200
C651        C  0.74266222  0.43064632  0.32652807    -0.03200
C652        C  0.77971060  0.44162915  0.30059858    -0.17700
H653        H  0.81191348  0.45663559  0.21291896     0.20300
H654        H  0.63676835  0.40383607  0.21802806     0.18700
H655        H  0.62934908  0.41406258  0.11876617     0.18600
H656        H  0.81738770  0.45309282  0.31291672     0.14500
C657        C  0.48843745  0.61352073  0.95371563     0.29900
C658        C  0.98674070  0.67712012  0.97795564    -0.36400
C659        C  0.00307094  0.72209968  0.96793337     0.15900
C660        C  0.51944872  0.70560553  0.95030294     0.21700
C661        C  0.55053071  0.67057214  0.93785924    -0.34500
C662        C  0.53333619  0.62457057  0.94020847     0.15800
O663        O  0.00239624  0.59486430  0.96535429    -0.26500
C664        C  0.51845515  0.55021855  0.93649146     0.05600
C665        C  0.55326275  0.58363133  0.92870813    -0.31400
O666        O  0.52779754  0.75097928  0.94923326    -0.23200
C667        C  0.48710003  0.76979867  0.96099502    -0.03200
C668        C  0.98432240  0.76516486  0.97488482    -0.17700
H669        H  0.95428152  0.67155514  0.99429998     0.20300
H670        H  0.58512660  0.67871074  0.92592293     0.18700
H671        H  0.58761923  0.57845222  0.91532453     0.18600
H672        H  0.95227026  0.77349224  0.99083766     0.14500
C673        C  0.00640664  0.93746464  0.75048110     0.29900
C674        C  0.50078012  0.91843394  0.71917719    -0.36400
C675        C  0.99820298  0.94121982  0.66835977     0.15900
C676        C  0.94806246  0.93133086  0.66400220     0.21700
C677        C  0.92541754  0.92355135  0.70303535    -0.34500
C678        C  0.95631587  0.92734274  0.74603106     0.15800
O679        O  0.49137889  0.91238600  0.79979169    -0.26500
C680        C  0.99058408  0.93365523  0.81777404     0.05600
C681        C  0.94540432  0.92472173  0.78967518    -0.31400
O682        O  0.92505624  0.93417737  0.62078584    -0.23200
C683        C  0.96095214  0.94614320  0.59717684    -0.03200
C684        C  0.00731858  0.95046055  0.62492534    -0.17700
H685        H  0.54079846  0.92198319  0.72572349     0.20300
H686        H  0.88610418  0.91674055  0.70004576     0.18700
H687        H  0.90960696  0.91801378  0.79995585     0.18600
H688        H  0.52623131  0.93368282  0.62646801     0.14500
C689        C  0.53250683  0.90763338  0.25302367     0.29900
C690        C  0.55405920  0.91799253  0.21366298    -0.36400
C691        C  0.52282003  0.91376161  0.17074140     0.15900
C692        C  0.99993850  0.93697055  0.16018857     0.21700
C693        C  0.97290783  0.93530917  0.19706507    -0.34500
C694        C  0.48333181  0.89422329  0.24904322     0.15800
O695        O  0.55542281  0.90781161  0.29644387    -0.26500
C696        C  0.52049012  0.89440763  0.32075196     0.05600
C697        C  0.47482258  0.88568465  0.29299886    -0.31400
O698        O  0.98112070  0.93543141  0.11581529    -0.23200
C699        C  0.48727551  0.90976701  0.09887323    -0.03200
C700        C  0.53229754  0.92005784  0.12677478    -0.17700
H701        H  0.59269654  0.92802260  0.21629475     0.20300
H702        H  0.93285129  0.93266478  0.19132037     0.18700
H703        H  0.94975349  0.92355684  0.29131642     0.18600
H704        H  0.56710132  0.93010398  0.11613746     0.14500
C705        C  0.69295686  0.72089467  0.97807203     0.29900
C706        C  0.66718899  0.68494766  0.99687960    -0.36400
C707        C  0.68265064  0.63925366  0.98959948     0.15900
C708        C  0.72079472  0.62932153  0.96534509     0.21700
C709        C  0.74727506  0.66541237  0.94728494    -0.34500
C710        C  0.73204305  0.71125558  0.95491331     0.15800
O711        O  0.68501351  0.76614912  0.98135849    -0.26500
C712        C  0.71995066  0.78589919  0.96067821     0.05600
C713        C  0.75051449  0.75349199  0.94381561    -0.31400
O714        O  0.72991908  0.58398082  0.96401554    -0.23200
C715        C  0.69729849  0.56487762  0.98795486    -0.03200
C716        C  0.66713825  0.59759156  0.00476626    -0.17700
H717        H  0.63741514  0.69212764  0.01624480     0.20300
H718        H  0.77814444  0.65829708  0.92929144     0.18700
H719        H  0.78184695  0.76016818  0.92618031     0.18600
H720        H  0.63881767  0.59147971  0.02618566     0.14500
C721        C  0.78263559  0.92406860  0.16802577     0.29900
C722        C  0.81597409  0.92045583  0.20987843    -0.36400
C723        C  0.79710057  0.93234062  0.25019976     0.15900
C724        C  0.74874933  0.94663223  0.24945420     0.21700
C725        C  0.71518444  0.94963679  0.20771034    -0.34500
C726        C  0.73404682  0.93780811  0.16737315     0.15800
O727        O  0.79304474  0.91697816  0.12602403    -0.26500
C728        C  0.75047230  0.92602206  0.09813717     0.05600
C729        C  0.71239501  0.93890667  0.12196027    -0.31400
O730        O  0.73966741  0.95812993  0.29091508    -0.23200
C731        C  0.78271222  0.95106205  0.31886388    -0.03200
C732        C  0.81979649  0.93472273  0.29522143    -0.17700
H733        H  0.85416430  0.90991956  0.21089866     0.20300
H734        H  0.67736086  0.96144505  0.20663556     0.18700
H735        H  0.67476435  0.94904689  0.10776603     0.18600
H736        H  0.85826406  0.92702423  0.30841705     0.14500
C737        C  0.69591390  0.93243761  0.74980755     0.29900
C738        C  0.66303576  0.93541307  0.70762174    -0.36400
C739        C  0.68414729  0.93010263  0.66718382     0.15900
C740        C  0.73414669  0.92252339  0.66799914     0.21700
C741        C  0.76712452  0.92007112  0.71021330    -0.34500
C742        C  0.74607140  0.92529172  0.75070714     0.15800
O743        O  0.68381999  0.93415699  0.79177960    -0.26500
C744        C  0.72684419  0.92813481  0.81999808     0.05600
C745        C  0.76688806  0.92262151  0.79634496    -0.31400
O746        O  0.74518939  0.91523556  0.62619458    -0.23200
C747        C  0.70161887  0.91806268  0.59799095    -0.03200
C748        C  0.66241717  0.92775353  0.62192236    -0.17700
H749        H  0.62352370  0.94027046  0.70639490     0.20300
H750        H  0.80613829  0.91289487  0.71154968     0.18700
H751        H  0.80550233  0.91657068  0.81070980     0.18600
H752        H  0.62312944  0.93047983  0.60891028     0.14500
C753        C  0.94182290  0.42444052  0.25584693     0.29900
C754        C  0.91167945  0.40820040  0.21564404    -0.36400
C755        C  0.92963982  0.41592421  0.17392662     0.15900
C756        C  0.97394943  0.43854425  0.17157221     0.21700
C757        C  0.00440280  0.45450405  0.21194258    -0.34500
C758        C  0.98671872  0.44621645  0.25388306     0.15800
O759        O  0.93283858  0.41953046  0.29862697    -0.26500
C760        C  0.97275648  0.43783087  0.32455534     0.05600
C761        C  0.00762199  0.45489580  0.29867575    -0.31400
O762        O  0.98430336  0.44014008  0.12890537    -0.23200
C763        C  0.94600372  0.41832194  0.10366882    -0.03200
C764        C  0.91127986  0.40208649  0.13013227    -0.17700
H765        H  0.87717886  0.38979772  0.21692287     0.20300
H766        H  0.03993815  0.47107541  0.21085683     0.18700
H767        H  0.04322780  0.47099094  0.31112386     0.18600
H768        H  0.87813379  0.38158069  0.11886739     0.14500
C769        C  0.99845839  0.22603811  0.99791286     0.29900
C770        C  0.47788837  0.16808256  0.93784883    -0.36400
C771        C  0.01153757  0.14480378  0.98852994     0.15900
C772        C  0.97711590  0.14438741  0.94826446     0.21700
C773        C  0.95351078  0.18569641  0.93029880    -0.34500
C774        C  0.96555519  0.22625062  0.95667523     0.15800
O775        O  0.00127237  0.26684014  0.01885955    -0.26500
C776        C  0.97038494  0.29388597  0.99039791     0.05600
C777        C  0.94731675  0.27061472  0.95093572    -0.31400
O778        O  0.96896265  0.10187936  0.93118325    -0.23200
C779        C  0.99948250  0.07515966  0.96039859    -0.03200
C780        C  0.47821510  0.07989729  0.93575778    -0.17700
H781        H  0.50650409  0.17427230  0.91679038     0.20300
H782        H  0.92672619  0.18599070  0.89861414     0.18700
H783        H  0.91909272  0.28366523  0.92351573     0.18600
H784        H  0.50715299  0.07228432  0.91554035     0.14500
C785        C  0.80442814  0.42589898  0.75863524     0.29900
C786        C  0.83143502  0.42777595  0.72168459    -0.36400
C787        C  0.80346004  0.43369497  0.67734783     0.14300
C788        C  0.75231206  0.43722930  0.66996790     0.21700
C789        C  0.72527243  0.43510491  0.70691690    -0.34500
C790        C  0.75328642  0.42909696  0.75121932     0.15800
O791        O  0.82299232  0.41830126  0.80252084    -0.26500
C792        C  0.78328397  0.41654547  0.82367259     0.05600
C793        C  0.73880334  0.42263937  0.79331825    -0.31400
O794        O  0.73342503  0.44053008  0.62560973    -0.23200
C795        C  0.77294556  0.43923040  0.60425182    -0.03200
C796        C  0.81760959  0.43507699  0.63467048    -0.17700
H797        H  0.87127513  0.42329390  0.72715503     0.20300
H798        H  0.68515829  0.43707373  0.70130103     0.18700
H799        H  0.70130389  0.42082232  0.80099435     0.18600
H800        H  0.85480151  0.43221961  0.62645033     0.14500
C801        C  0.74091629  0.13638053  0.96151345     0.29900
C802        C  0.71792997  0.18000492  0.96436124    -0.36400
C803        C  0.74524764  0.21935955  0.95402810     0.15900
C804        C  0.79171352  0.21583884  0.94130855     0.21700
C805        C  0.81493601  0.17240059  0.93930509    -0.34500
C806        C  0.78795726  0.13323389  0.95009019     0.15800
O807        O  0.72126074  0.09488953  0.96721639    -0.26500
C808        C  0.75652231  0.06495328  0.95993221     0.05600
C809        C  0.79895073  0.08687973  0.94949518    -0.31400
O810        O  0.80927241  0.25657566  0.93012370    -0.23200
C811        C  0.77400332  0.28674379  0.93643235    -0.03200
C812        C  0.73330703  0.26576399  0.95139898    -0.17700
H813        H  0.68090793  0.18297437  0.97293557     0.20300
H814        H  0.85103949  0.16919285  0.92897086     0.18700
H815        H  0.83222164  0.07088997  0.94090627     0.18600
H816        H  0.69921295  0.28210081  0.95750510     0.14500
loop_ 
_geom_bond_atom_site_label_1 
_geom_bond_atom_site_label_2 
_geom_bond_distance 
_geom_bond_site_symmetry_2 
_ccdc_geom_bond_type 
C1            C2   1.536       .  S
C1            C7   1.530       .  S
C1            C5   1.539       .  S
C1          C384   1.508       .  S
C2            H9   1.082       .  S
C2            C3   1.372       .  D
C3            C4   1.547       .  S
C3           C58   1.499       .  S
C4            C8   1.534       .  S
C4            C6   1.537       .  S
C4           H10   1.107       .  S
C5           H11   1.086       .  S
C5            C6   1.368       .  D
C6           C18   1.477       .  S
C7           H12   1.087       .  S
C7            C8   1.358       .  D
C8          C403   1.466       .  S
C13          C14   1.538       .  S
C13          C19   1.526       .  S
C13          C17   1.537       .  S
C13         C355   1.511       .  S
C14         H429   1.082       .  S
C14          C15   1.374   1_554  D
C15          C16   1.550       .  S
C15         C478   1.502       .  S
C16          C20   1.544       .  S
C16          C18   1.538       .  S
C16          H22   1.107       .  S
C17          H23   1.086       .  S
C17          C18   1.366   1_554  D
C19          H24   1.087       .  S
C19          C20   1.361   1_554  D
C20         C368   1.479       .  S
H21         C422   1.083       .  S
O25          V33   1.898   1_554  S
O25          C35   1.263       .  A
O26          V33   1.905       .  S
O26          C36   1.265       .  A
O27          V33   1.897       .  S
O27          C37   1.263       .  A
O28          V33   1.903       .  S
O28          C38   1.264   1_565  A
O29          V34   1.895       .  S
O29          C38   1.263   1_565  A
O30          V34   1.910       .  S
O30          C37   1.266       .  A
O31          V34   1.906       .  S
O31          C36   1.265       .  A
O32          V34   1.912   1_554  S
O32          C35   1.266       .  A
V33          V34   2.089       .  T
C35         C320   1.473       .  S
C36         C336   1.474       .  S
C37         C304   1.471       .  S
C38         C400   1.463       .  S
O39          V47   1.904   1_554  S
O39         C457   1.264       .  A
O40          V47   1.911       .  S
O40          C50   1.266       .  A
O41          V47   1.905       .  S
O41         C459   1.265       .  A
O42          V47   1.906       .  S
O42          C52   1.265       .  A
O43          V48   1.896   1_545  S
O43         C460   1.263       .  A
O44          V48   1.895       .  S
O44          C51   1.263       .  A
O45          V48   1.902       .  S
O45         C458   1.264   1_455  A
O46          V48   1.901   1_554  S
O46          C49   1.265       .  A
V47         V456   2.088       .  T
V48         V455   2.085   1_455  T
C49         O447   1.262   1_455  A
C49         C291   1.462       .  S
C50         O453   1.262       .  A
C50         C272   1.468       .  S
C51         O449   1.265   1_455  A
C51         C259   1.464       .  S
C52         O451   1.264       .  A
C52         C371   1.469   1_565  S
C53          C54   1.537       .  S
C53          C59   1.531       .  S
C53          C57   1.536       .  S
C53         C240   1.510       .  S
C54          H61   1.084       .  S
C54          C55   1.363   1_554  D
C55          C56   1.539       .  S
C55          C67   1.475       .  S
C56          C60   1.539   1_556  S
C56          C58   1.548       .  S
C56          H62   1.107       .  S
C57          H63   1.082       .  S
C57          C58   1.374   1_554  D
C59          H64   1.087       .  S
C59          C60   1.360       .  D
C60         C307   1.474   1_554  S
C65          C66   1.539       .  S
C65          C71   1.527       .  S
C65          C69   1.534   1_455  S
C65         C227   1.506       .  S
C66          H73   1.086       .  S
C66          C67   1.366       .  D
C67          C68   1.538       .  S
C68          C72   1.536       .  S
C68          C70   1.548       .  S
C68          H74   1.107       .  S
C69         H483   1.082       .  S
C69          C70   1.373   1_655  D
C70         C423   1.500   1_455  S
C71          H76   1.087       .  S
C71          C72   1.359       .  D
C72         C256   1.467       .  S
H75         C477   1.083       .  S
C77          C78   1.536       .  S
C77          C83   1.533       .  S
C77          C81   1.537       .  S
C77         C288   1.502       .  S
C78         H493   1.083   1_455  S
C78          C79   1.372       .  D
C79          C80   1.550       .  S
C79         C554   1.496   1_455  S
C80          C84   1.534       .  S
C80          C82   1.534       .  S
C80          H86   1.105       .  S
C81          H87   1.086       .  S
C81          C82   1.362       .  D
C82          C94   1.477       .  S
C83          H88   1.087       .  S
C83          C84   1.360       .  D
C84         C211   1.473       .  S
H85         C486   1.083       .  S
C89          C90   1.538       .  S
C89          C95   1.531       .  S
C89          C93   1.536       .  S
C89         C339   1.514       .  S
C90          H97   1.082       .  S
C90          C91   1.378       .  D
C91          C92   1.551       .  S
C91         C134   1.504       .  S
C92          C96   1.537       .  S
C92          C94   1.535       .  S
C92          H98   1.107       .  S
C93          H99   1.086       .  S
C93          C94   1.364       .  D
C95         H100   1.087       .  S
C95          C96   1.361       .  D
C96         C192   1.472       .  S
O101        V109   1.903       .  S
O101        C111   1.266       .  A
O102        V109   1.908       .  S
O102        C112   1.266       .  A
O103        V109   1.897       .  S
O103        C113   1.263       .  A
O104        V109   1.896       .  S
O104        C114   1.263       .  A
O105        V110   1.910       .  S
O105        C114   1.266       .  A
O106        V110   1.909       .  S
O106        C113   1.266       .  A
O107        V110   1.899       .  S
O107        C112   1.264       .  A
O108        V110   1.901       .  S
O108        C111   1.263       .  A
V109        V110   2.086       .  T
C111        C243   1.470       .  S
C112        C387   1.472       .  S
C113        C176   1.470       .  S
C114        C195   1.470       .  S
O115        V123   1.902       .  S
O115        C533   1.264   1_455  A
O116        V123   1.900       .  S
O116        C126   1.264   1_455  A
O117        V123   1.908       .  S
O117        C535   1.266   1_455  A
O118        V123   1.906       .  S
O118        C128   1.266   1_455  A
O119        V124   1.894       .  S
O119        C536   1.262       .  A
O120        V124   1.888       .  S
O120        C127   1.261       .  A
O121        V124   1.897       .  S
O121        C534   1.264       .  A
O122        V124   1.900       .  S
O122        C125   1.264       .  A
V123        V532   2.081   1_455  T
V124        V531   2.085       .  T
C125        O523   1.267       .  A
C125        C352   1.474       .  S
C126        O529   1.265       .  A
C126        C224   1.467   1_655  S
C127        O525   1.265       .  A
C127        C160   1.460       .  S
C128        O527   1.263       .  A
C128        C208   1.468       .  S
C129        C130   1.534       .  S
C129        C135   1.529   1_565  S
C129        C133   1.543       .  S
C129        C323   1.513       .  S
C130        H137   1.086       .  S
C130        C131   1.363       .  D
C131        C132   1.538       .  S
C131        C143   1.475       .  S
C132        C136   1.539   1_565  S
C132        C134   1.547       .  S
C132        H138   1.106       .  S
C133        H139   1.082       .  S
C133        C134   1.378       .  D
C135        H140   1.087       .  S
C135        C136   1.361       .  D
C136        C179   1.474       .  S
C141        C142   1.537       .  S
C141        C147   1.529       .  S
C141        C145   1.539       .  S
C141        C275   1.505       .  S
C142        H149   1.086       .  S
C142        C143   1.365       .  D
C143        C144   1.538       .  S
C144        C148   1.531   1_565  S
C144        C146   1.545       .  S
C144        H150   1.107       .  S
C145        H559   1.083       .  S
C145        C146   1.373       .  D
C146        C487   1.497       .  S
C147        H152   1.087   1_565  S
C147        C148   1.358   1_565  D
C148        C163   1.462       .  S
H151        C553   1.081   1_455  S
C153        C158   1.381       .  A
C153        C154   1.396       .  A
C153        O159   1.312       .  A
C154        C155   1.394       .  A
C154        H165   1.082       .  S
C155        C164   1.353       .  A
C155        C156   1.381       .  A
C156        C565   1.406       .  A
C156        O162   1.320       .  A
C157        C564   1.406   1_455  A
C157        C566   1.406   1_455  A
C157        H166   1.082       .  S
C158        C565   1.405       .  A
C158        C569   1.365       .  A
O159        C160   1.327       .  A
C160        C569   1.392       .  A
C161        C566   1.366   1_455  A
C161        C568   1.392   1_455  A
C161        H167   1.082       .  S
O162        C163   1.330       .  A
C163        C164   1.385       .  A
C164        H168   1.083       .  S
C169        C174   1.381       .  A
C169        C170   1.400       .  A
C169        O175   1.316       .  A
C170        C171   1.400       .  A
C170        H181   1.083       .  S
C171        C180   1.358       .  A
C171        C172   1.380       .  A
C172        C173   1.408       .  A
C172        O178   1.323       .  A
C173        C174   1.408       .  A
C173        H182   1.082       .  S
C174        C177   1.368       .  A
O175        C176   1.329       .  A
C176        C177   1.394       .  A
C177        H183   1.082       .  S
O178        C179   1.332       .  A
C179        C180   1.388       .  A
C180        H184   1.083       .  S
C185        C190   1.381       .  A
C185        C186   1.401       .  A
C185        O191   1.317       .  A
C186        C187   1.400       .  A
C186        H197   1.083       .  S
C187        C196   1.358       .  A
C187        C188   1.381       .  A
C188        C189   1.407       .  A
C188        O194   1.323       .  A
C189        C190   1.407       .  A
C189        H198   1.083       .  S
C190        C193   1.366       .  A
O191        C192   1.329       .  A
C192        C193   1.392       .  A
C193        H199   1.083       .  S
O194        C195   1.333       .  A
C195        C196   1.389       .  A
C196        H200   1.083       .  S
C201        C206   1.381   1_655  A
C201        C610   1.403       .  A
C201        O615   1.319       .  A
C202        C609   1.399       .  A
C202        C611   1.399       .  A
C202        H213   1.082       .  S
C203        C212   1.362       .  A
C203        C204   1.381   1_655  A
C203        C610   1.402       .  A
C204        C205   1.404       .  A
C204        O210   1.319       .  A
C205        C206   1.403       .  A
C205        H214   1.083       .  S
C206        C209   1.363       .  A
O207        C609   1.316       .  A
O207        C616   1.328       .  A
C208        C209   1.391   1_655  A
C208        O615   1.330       .  A
C209        H215   1.083       .  S
O210        C211   1.330       .  A
C211        C212   1.391   1_455  A
C212        H624   1.082       .  S
H216        C620   1.083       .  S
C217        C218   1.397       .  A
C217        C630   1.380       .  A
C217        O223   1.315       .  A
C218        C627   1.399       .  A
C218        H229   1.078       .  S
C219        C220   1.380   1_655  A
C219        C626   1.401       .  A
C219        C636   1.358       .  A
C220        C221   1.404       .  A
C220        O226   1.320       .  A
C221        C222   1.404       .  A
C221        H230   1.082       .  S
C222        C225   1.363       .  A
C222        C625   1.381   1_455  A
O223        C632   1.328       .  A
C224        C225   1.392       .  A
C224        O631   1.329   1_455  A
C225        H231   1.083       .  S
O226        C227   1.332       .  A
C227        C636   1.392   1_455  A
C228        C627   1.359       .  A
C228        C635   1.391       .  A
C228        H232   1.083       .  S
C233        C238   1.380       .  A
C233        C234   1.401       .  A
C233        O239   1.316       .  A
C234        C235   1.400       .  A
C234        H245   1.082       .  S
C235        C244   1.360       .  A
C235        C236   1.381       .  A
C236        C237   1.405       .  A
C236        O242   1.320       .  A
C237        C238   1.405       .  A
C237        H246   1.083       .  S
C238        C241   1.363       .  A
O239        C240   1.331       .  A
C240        C241   1.397       .  A
C241        H247   1.081       .  S
O242        C243   1.332       .  A
C243        C244   1.390       .  A
C244        H248   1.083       .  S
C249        C254   1.381       .  A
C249        C658   1.405   1_455  A
C249        O663   1.321       .  A
C250        C251   1.406       .  A
C250        C657   1.406       .  A
C250        H261   1.082       .  S
C251        C260   1.365       .  A
C251        C660   1.381       .  A
C252        C253   1.399       .  A
C252        C659   1.381       .  A
C252        O258   1.316       .  A
C253        C254   1.398       .  A
C253        H262   1.083       .  S
C254        C257   1.355       .  A
O255        C657   1.322       .  A
O255        C664   1.331       .  A
C256        C257   1.388       .  A
C256        O663   1.330       .  A
C257        H263   1.083       .  S
O258        C259   1.328       .  A
C259        C668   1.391   1_455  A
C260        C667   1.393       .  A
C260        H264   1.083       .  S
C265        C270   1.381       .  A
C265        C674   1.399       .  A
C265        O679   1.314       .  A
C266        C673   1.401       .  A
C266        C675   1.402   1_455  A
C266        H277   1.082       .  S
C267        C276   1.357       .  A
C267        C268   1.380       .  A
C267        C674   1.398       .  A
C268        C269   1.407       .  A
C268        O274   1.321       .  A
C269        C270   1.406       .  A
C269        H278   1.081       .  S
C270        C273   1.367       .  A
O271        C673   1.318       .  A
O271        C680   1.330   1_455  A
C272        C273   1.393       .  A
C272        O679   1.328       .  A
C273        H279   1.082       .  S
O274        C275   1.334       .  A
C275        C276   1.390       .  A
C276        H688   1.083       .  S
H280        C684   1.083       .  S
C281        C286   1.380       .  A
C281        C282   1.402       .  A
C281        O287   1.316       .  A
C282        C283   1.401       .  A
C282        H293   1.081       .  S
C283        C292   1.362       .  A
C283        C692   1.380   1_455  A
C284        C285   1.405       .  A
C284        C691   1.381       .  A
C284        O290   1.321       .  A
C285        C694   1.404       .  A
C285        H294   1.082       .  S
C286        C289   1.359   1_455  A
C286        C693   1.399   1_455  A
O287        C288   1.331       .  A
C288        C289   1.391   1_455  A
C289        H703   1.082       .  S
O290        C699   1.332       .  A
C291        C292   1.390       .  A
C291        O698   1.329   1_455  A
C292        H296   1.083       .  S
H295        C697   1.083       .  S
C297        C302   1.381       .  A
C297        C298   1.401       .  A
C297        O303   1.317       .  A
C298        C299   1.400       .  A
C298        H309   1.082   1_556  S
C299        C308   1.359   1_556  A
C299        C300   1.380       .  A
C300        C301   1.408       .  A
C300        O306   1.323       .  A
C301        C302   1.408       .  A
C301        H310   1.082       .  S
C302        C305   1.368       .  A
O303        C304   1.329       .  A
C304        C305   1.394       .  A
C305        H311   1.082       .  S
O306        C307   1.332       .  A
C307        C308   1.388   1_556  A
C308        H312   1.083       .  S
C313        C318   1.380       .  A
C313        C314   1.405       .  A
C313        O319   1.322       .  A
C314        C315   1.405       .  A
C314        H325   1.082       .  S
C315        C324   1.360       .  A
C315        C316   1.380       .  A
C316        C317   1.405       .  A
C316        O322   1.323       .  A
C317        C318   1.405       .  A
C317        H326   1.081       .  S
C318        C321   1.362       .  A
O319        C320   1.332       .  A
C320        C321   1.392       .  A
C321        H327   1.083       .  S
O322        C323   1.332       .  A
C323        C324   1.394       .  A
C324        H328   1.083       .  S
C329        C334   1.381       .  A
C329        C330   1.403       .  A
C329        O335   1.320       .  A
C330        C331   1.402       .  A
C330        H341   1.083       .  S
C331        C340   1.359       .  A
C331        C332   1.380       .  A
C332        C333   1.408       .  A
C332        O338   1.324       .  A
C333        C334   1.408       .  A
C333        H342   1.082       .  S
C334        C337   1.366       .  A
O335        C336   1.330       .  A
C336        C337   1.394       .  A
C337        H343   1.082       .  S
O338        C339   1.334       .  A
C339        C340   1.393       .  A
C340        H344   1.083       .  S
C345        C350   1.380       .  A
C345        C346   1.404       .  A
C345        O351   1.319       .  A
C346        C347   1.403       .  A
C346        H357   1.082       .  S
C347        C356   1.361       .  A
C347        C348   1.380       .  A
C348        C349   1.406       .  A
C348        O354   1.321       .  A
C349        C350   1.405       .  A
C349        H358   1.082       .  S
C350        C353   1.365       .  A
O351        C352   1.332       .  A
C352        C353   1.392       .  A
C353        H359   1.083       .  S
O354        C355   1.333       .  A
C355        C356   1.393       .  A
C356        H360   1.083       .  S
C361        C366   1.381       .  A
C361        C770   1.407       .  A
C361        O367   1.325       .  A
C362        C769   1.401   1_454  A
C362        C771   1.401   1_554  A
C362        H373   1.082       .  S
C363        C364   1.381       .  A
C363        C770   1.407       .  A
C363        C780   1.365       .  A
C364        C365   1.401       .  A
C364        O370   1.319       .  A
C365        C366   1.402       .  A
C365        H374   1.082   1_556  S
C366        C369   1.357   1_556  A
O367        C368   1.332       .  A
C368        C369   1.391   1_556  A
C369        H375   1.083       .  S
O370        C371   1.329       .  A
C371        C780   1.393       .  A
C372        C771   1.359       .  A
C372        C779   1.388   1_455  A
C372        H376   1.083   1_556  S
C377        C382   1.379       .  A
C377        C378   1.405       .  A
C377        O383   1.322       .  A
C378        C379   1.407       .  A
C378        H389   1.078       .  S
C379        C388   1.368       .  A
C379        C380   1.380       .  A
C380        C381   1.401       .  A
C380        O386   1.317       .  A
C381        C382   1.401       .  A
C381        H390   1.082       .  S
C382        C385   1.358       .  A
O383        C384   1.332       .  A
C384        C385   1.392       .  A
C385        H391   1.083       .  S
O386        C387   1.329       .  A
C387        C388   1.394       .  A
C388        H392   1.083       .  S
C393        C398   1.381       .  A
C393        C394   1.405       .  A
C393        O399   1.320       .  A
C394        C395   1.404       .  A
C394        H405   1.082       .  S
C395        C404   1.366       .  A
C395        C396   1.381       .  A
C396        C397   1.399       .  A
C396        O402   1.314       .  A
C397        C398   1.398       .  A
C397        H406   1.083       .  S
C398        C401   1.358       .  A
O399        C400   1.331       .  A
C400        C401   1.388       .  A
C401        H407   1.083       .  S
O402        C403   1.328       .  A
C403        C404   1.389       .  A
C404        H408   1.082       .  S
C409        C410   1.538       .  S
C409        C415   1.531       .  S
C409        C413   1.535       .  S
C409        C792   1.505       .  S
C410        H417   1.082       .  S
C410        C411   1.373       .  D
C411        C412   1.549       .  S
C411        C466   1.500       .  S
C412        C416   1.538       .  S
C412        C414   1.538       .  S
C412        H418   1.106       .  S
C413        H419   1.086       .  S
C413        C414   1.362       .  D
C414        C426   1.474       .  S
C415        H420   1.087       .  S
C415        C416   1.360       .  D
C416        C811   1.471       .  S
C421        C422   1.539       .  S
C421        C427   1.531       .  S
C421        C425   1.536       .  S
C421        C763   1.507       .  S
C422        C423   1.375   1_554  D
C423        C424   1.550       .  S
C424        C428   1.538   1_556  S
C424        C426   1.535       .  S
C424        H430   1.105       .  S
C425        H431   1.086       .  S
C425        C426   1.361   1_554  D
C427        H432   1.087       .  S
C427        C428   1.362       .  D
C428        C776   1.475   1_554  S
O433        V441   1.900   1_554  S
O433        C443   1.264       .  A
O434        V441   1.908       .  S
O434        C444   1.266       .  A
O435        V441   1.905       .  S
O435        C445   1.265       .  A
O436        V441   1.903       .  S
O436        C446   1.264   1_565  A
O437        V442   1.903       .  S
O437        C446   1.265   1_565  A
O438        V442   1.903       .  S
O438        C445   1.264       .  A
O439        V442   1.900       .  S
O439        C444   1.264       .  A
O440        V442   1.904   1_554  S
O440        C443   1.264       .  A
V441        V442   2.088       .  T
C443        C728   1.470       .  S
C444        C744   1.474       .  S
C445        C712   1.471       .  S
C446        C808   1.471       .  S
O447        V455   1.891   1_554  S
O448        V455   1.890       .  S
O448        C458   1.262       .  A
O449        V455   1.904       .  S
O450        V455   1.906       .  S
O450        C460   1.265   1_665  A
O451        V456   1.901       .  S
O452        V456   1.900       .  S
O452        C459   1.264       .  A
O453        V456   1.890       .  S
O454        V456   1.899   1_554  S
O454        C457   1.264       .  A
C457        C699   1.471       .  S
C458        C680   1.462       .  S
C459        C667   1.470       .  S
C460        C779   1.465   1_455  S
C461        C462   1.541       .  S
C461        C467   1.528       .  S
C461        C465   1.535       .  S
C461        C648   1.510       .  S
C462        H469   1.084       .  S
C462        C463   1.367   1_554  D
C463        C464   1.538       .  S
C463        C475   1.477       .  S
C464        C468   1.540   1_556  S
C464        C466   1.548       .  S
C464        H470   1.107       .  S
C465        H471   1.082       .  S
C465        C466   1.373   1_554  D
C467        H472   1.087       .  S
C467        C468   1.359       .  D
C468        C715   1.475   1_554  S
C473        C474   1.537       .  S
C473        C479   1.533       .  S
C473        C477   1.538       .  S
C473        C635   1.511       .  S
C474        H481   1.086       .  S
C474        C475   1.367       .  D
C475        C476   1.537       .  S
C476        C480   1.537       .  S
C476        C478   1.550       .  S
C476        H482   1.107       .  S
C477        C478   1.373       .  D
C479        H484   1.087       .  S
C479        C480   1.359       .  D
C480        C664   1.472       .  S
C485        C486   1.535       .  S
C485        C491   1.527       .  S
C485        C489   1.541       .  S
C485        C696   1.509       .  S
C486        C487   1.373       .  D
C487        C488   1.547       .  S
C488        C492   1.537       .  S
C488        C490   1.543       .  S
C488        H494   1.107       .  S
C489        H495   1.086       .  S
C489        C490   1.368       .  D
C490        C502   1.487       .  S
C491        H496   1.087       .  S
C491        C492   1.359       .  D
C492        C619   1.469       .  S
C497        C498   1.536       .  S
C497        C503   1.535       .  S
C497        C501   1.542       .  S
C497        C747   1.519       .  S
C498        H505   1.083       .  S
C498        C499   1.374       .  D
C499        C500   1.554       .  S
C499        C542   1.503       .  S
C500        C504   1.532       .  S
C500        C502   1.537       .  S
C500        H506   1.106       .  S
C501        H507   1.083       .  S
C501        C502   1.364       .  D
C503        H508   1.087       .  S
C503        C504   1.362       .  D
C504        C600   1.468       .  S
O509        V517   1.903       .  S
O509        C519   1.265       .  A
O510        V517   1.904       .  S
O510        C520   1.265       .  A
O511        V517   1.895       .  S
O511        C521   1.263       .  A
O512        V517   1.896       .  S
O512        C522   1.263       .  A
O513        V518   1.906       .  S
O513        C522   1.265       .  A
O514        V518   1.906       .  S
O514        C521   1.265       .  A
O515        V518   1.897       .  S
O515        C520   1.263       .  A
O516        V518   1.899       .  S
O516        C519   1.264       .  A
V517        V518   2.084       .  T
C519        C651   1.469       .  S
C520        C795   1.467       .  S
C521        C584   1.466       .  S
C522        C603   1.468       .  S
O523        V531   1.910       .  S
O524        V531   1.909       .  S
O524        C534   1.266       .  A
O525        V531   1.905       .  S
O526        V531   1.903       .  S
O526        C536   1.265       .  A
O527        V532   1.900       .  S
O528        V532   1.896       .  S
O528        C535   1.263       .  A
O529        V532   1.900       .  S
O530        V532   1.901       .  S
O530        C533   1.264       .  A
C533        C760   1.467       .  S
C534        C632   1.471       .  S
C535        C568   1.468       .  S
C536        C616   1.464       .  S
C537        C538   1.539       .  S
C537        C543   1.529   1_565  S
C537        C541   1.534       .  S
C537        C731   1.512       .  S
C538        H545   1.084       .  S
C538        C539   1.364       .  D
C539        C540   1.541       .  S
C539        C551   1.480       .  S
C540        C544   1.538   1_565  S
C540        C542   1.552       .  S
C540        H546   1.107       .  S
C541        H547   1.082       .  S
C541        C542   1.372       .  D
C543        H548   1.087       .  S
C543        C544   1.362       .  D
C544        C587   1.471       .  S
C549        C550   1.540       .  S
C549        C555   1.525   1_565  S
C549        C553   1.528       .  S
C549        C683   1.498       .  S
C550        H557   1.086       .  S
C550        C551   1.367       .  D
C551        C552   1.543       .  S
C552        C556   1.539   1_565  S
C552        C554   1.549       .  S
C552        H558   1.107   1_565  S
C553        C554   1.368       .  D
C555        H560   1.087       .  S
C555        C556   1.357       .  D
C556        C571   1.469       .  S
C561        C566   1.381       .  A
C561        C562   1.400       .  A
C561        O567   1.316       .  A
C562        C563   1.399       .  A
C562        H573   1.082       .  S
C563        C572   1.356       .  A
C563        C564   1.381       .  A
C564        O570   1.322       .  A
C565        H574   1.082       .  S
O567        C568   1.329       .  A
C569        H575   1.082       .  S
O570        C571   1.331       .  A
C571        C572   1.388       .  A
C572        H576   1.083       .  S
C577        C582   1.381       .  A
C577        C578   1.398       .  A
C577        O583   1.315       .  A
C578        C579   1.398       .  A
C578        H589   1.083       .  S
C579        C588   1.356       .  A
C579        C580   1.381       .  A
C580        C581   1.407       .  A
C580        O586   1.323       .  A
C581        C582   1.407       .  A
C581        H590   1.082       .  S
C582        C585   1.366       .  A
O583        C584   1.328       .  A
C584        C585   1.393       .  A
C585        H591   1.082       .  S
O586        C587   1.332       .  A
C587        C588   1.387       .  A
C588        H592   1.083       .  S
C593        C598   1.382       .  A
C593        C594   1.401       .  A
C593        O599   1.318       .  A
C594        C595   1.401       .  A
C594        H605   1.082       .  S
C595        C604   1.359       .  A
C595        C596   1.381       .  A
C596        C597   1.404       .  A
C596        O602   1.320       .  A
C597        C598   1.404       .  A
C597        H606   1.082       .  S
C598        C601   1.361       .  A
O599        C600   1.329       .  A
C600        C601   1.389       .  A
C601        H607   1.083       .  S
O602        C603   1.331       .  A
C603        C604   1.390       .  A
C604        H608   1.083       .  S
C609        C614   1.381       .  A
C610        H621   1.083       .  S
C611        C620   1.356       .  A
C611        C612   1.381       .  A
C612        C613   1.405       .  A
C612        O618   1.321       .  A
C613        C614   1.405       .  A
C613        H622   1.082       .  S
C614        C617   1.364       .  A
C616        C617   1.392       .  A
C617        H623   1.082       .  S
O618        C619   1.330       .  A
C619        C620   1.388       .  A
C625        C626   1.400       .  A
C625        O631   1.317       .  A
C626        H637   1.082       .  S
C627        C628   1.379       .  A
C628        C629   1.409       .  A
C628        O634   1.323       .  A
C629        C630   1.409       .  A
C629        H638   1.081       .  S
C630        C633   1.369       .  A
C632        C633   1.395       .  A
C633        H639   1.083       .  S
O634        C635   1.335       .  A
C636        H640   1.083       .  S
C641        C646   1.379       .  A
C641        C642   1.403       .  A
C641        O647   1.316       .  A
C642        C643   1.402       .  A
C642        H653   1.082       .  S
C643        C652   1.362       .  A
C643        C644   1.380       .  A
C644        C645   1.404       .  A
C644        O650   1.319       .  A
C645        C646   1.403       .  A
C645        H654   1.082       .  S
C646        C649   1.363       .  A
O647        C648   1.332       .  A
C648        C649   1.396       .  A
C649        H655   1.081       .  S
O650        C651   1.331       .  A
C651        C652   1.391       .  A
C652        H656   1.083       .  S
C657        C662   1.381       .  A
C658        C659   1.405   1_655  A
C658        H669   1.082       .  S
C659        C668   1.364   1_455  A
C660        C661   1.401       .  A
C660        O666   1.318       .  A
C661        C662   1.400       .  A
C661        H670   1.081       .  S
C662        C665   1.359       .  A
C664        C665   1.388       .  A
C665        H671   1.083       .  S
O666        C667   1.330       .  A
C668        H672   1.082       .  S
C673        C678   1.381   1_455  A
C674        H685   1.082       .  S
C675        C684   1.355   1_655  A
C675        C676   1.381       .  A
C676        C677   1.397       .  A
C676        O682   1.317       .  A
C677        C678   1.399       .  A
C677        H686   1.079       .  S
C678        C681   1.356       .  A
C680        C681   1.389       .  A
C681        H687   1.083       .  S
O682        C683   1.328       .  A
C683        C684   1.393   1_655  A
C689        C694   1.380       .  A
C689        C690   1.402       .  A
C689        O695   1.320       .  A
C690        C691   1.402       .  A
C690        H701   1.082       .  S
C691        C700   1.361       .  A
C692        C693   1.400       .  A
C692        O698   1.315       .  A
C693        H702   1.080       .  S
C694        C697   1.361       .  A
O695        C696   1.331       .  A
C696        C697   1.394       .  A
C699        C700   1.391       .  A
C700        H704   1.083       .  S
C705        C710   1.381       .  A
C705        C706   1.402       .  A
C705        O711   1.319       .  A
C706        C707   1.402       .  A
C706        H717   1.082   1_556  S
C707        C716   1.359   1_556  A
C707        C708   1.381       .  A
C708        C709   1.406       .  A
C708        O714   1.323       .  A
C709        C710   1.406       .  A
C709        H718   1.082       .  S
C710        C713   1.365       .  A
O711        C712   1.330       .  A
C712        C713   1.392       .  A
C713        H719   1.082       .  S
O714        C715   1.331       .  A
C715        C716   1.390   1_556  A
C716        H720   1.083       .  S
C721        C726   1.380       .  A
C721        C722   1.404       .  A
C721        O727   1.319       .  A
C722        C723   1.403       .  A
C722        H733   1.081       .  S
C723        C732   1.361       .  A
C723        C724   1.378       .  A
C724        C725   1.403       .  A
C724        O730   1.318       .  A
C725        C726   1.402       .  A
C725        H734   1.082       .  S
C726        C729   1.362       .  A
O727        C728   1.331       .  A
C728        C729   1.391       .  A
C729        H735   1.083       .  S
O730        C731   1.332       .  A
C731        C732   1.396       .  A
C732        H736   1.080       .  S
C737        C742   1.380       .  A
C737        C738   1.404       .  A
C737        O743   1.321       .  A
C738        C739   1.404       .  A
C738        H749   1.082       .  S
C739        C748   1.360       .  A
C739        C740   1.378       .  A
C740        C741   1.405       .  A
C740        O746   1.321       .  A
C741        C742   1.404       .  A
C741        H750   1.079       .  S
C742        C745   1.363       .  A
O743        C744   1.331       .  A
C744        C745   1.393       .  A
C745        H751   1.083       .  S
O746        C747   1.334       .  A
C747        C748   1.397       .  A
C748        H752   1.080       .  S
C753        C758   1.381       .  A
C753        C754   1.400       .  A
C753        O759   1.318       .  A
C754        C755   1.400       .  A
C754        H765   1.082       .  S
C755        C764   1.356       .  A
C755        C756   1.380       .  A
C756        C757   1.405   1_655  A
C756        O762   1.321       .  A
C757        C758   1.405   1_455  A
C757        H766   1.082       .  S
C758        C761   1.363   1_655  A
O759        C760   1.329       .  A
C760        C761   1.392   1_655  A
C761        H767   1.082       .  S
O762        C763   1.332       .  A
C763        C764   1.392       .  A
C764        H768   1.083       .  S
C769        C774   1.380       .  A
C769        O775   1.317   1_656  A
C770        H781   1.082       .  S
C771        C772   1.381   1_455  A
C772        C773   1.405       .  A
C772        O778   1.321       .  A
C773        C774   1.404       .  A
C773        H782   1.082       .  S
C774        C777   1.364       .  A
O775        C776   1.330   1_454  A
C776        C777   1.392       .  A
C777        H783   1.083       .  S
O778        C779   1.331       .  A
C780        H784   1.082       .  S
C785        C790   1.380       .  A
C785        C786   1.402       .  A
C785        O791   1.316       .  A
C786        C787   1.402       .  A
C786        H797   1.080       .  S
C787        C796   1.363       .  A
C787        C788   1.380       .  A
C788        C789   1.402       .  A
C788        O794   1.317       .  A
C789        C790   1.402       .  A
C789        H798   1.081       .  S
C790        C793   1.362       .  A
O791        C792   1.331       .  A
C792        C793   1.393       .  A
C793        H799   1.083       .  S
O794        C795   1.330       .  A
C795        C796   1.392       .  A
C796        H800   1.083       .  S
C801        C806   1.380       .  A
C801        C802   1.407       .  A
C801        O807   1.321       .  A
C802        C803   1.406       .  A
C802        H813   1.082       .  S
C803        C812   1.366       .  A
C803        C804   1.381       .  A
C804        C805   1.402       .  A
C804        O810   1.318       .  A
C805        C806   1.400       .  A
C805        H814   1.080       .  S
C806        C809   1.361       .  A
O807        C808   1.333       .  A
C808        C809   1.390       .  A
C809        H815   1.083       .  S
O810        C811   1.329       .  A
C811        C812   1.390       .  A
C812        H816   1.082       .  S
