geometry optimzed in LAMMPS
_audit_creation_date              2020-11-30 
_audit_creation_method            'lammps2cif' 
_symmetry_space_group_name_H-M    'P1' 
_symmetry_Int_Tables_number       1 
_symmetry_cell_setting            triclinic 
loop_ 
_symmetry_equiv_pos_as_xyz 
  x,y,z 
_cell_length_a                    28.49656735 
_cell_length_b                    70.10765963542828 
_cell_length_c                    28.57368094260901 
_cell_angle_alpha                 88.85715590743929 
_cell_angle_beta                  89.25974002690982 
_cell_angle_gamma                 81.78055018069008 
loop_ 
_atom_site_label 
_atom_site_type_symbol 
_atom_site_fract_x 
_atom_site_fract_y 
_atom_site_fract_z 
_atom_site_charge 
N1          N  0.28353439  0.33395851  0.48262512    -0.02300
C2          C  0.33056014  0.32877282  0.49101820     0.00300
C3          C  0.34066482  0.30913499  0.49875741    -0.22600
C4          C  0.29867075  0.30188761  0.49484065    -0.22800
C5          C  0.26394549  0.31732914  0.48495871     0.00200
H6          H  0.37497645  0.30094939  0.50626286     0.14000
H7          H  0.29383318  0.28696260  0.50013134     0.14000
N8          N  0.42292485  0.59498004  0.49659913    -0.02300
C9          C  0.47071926  0.59072427  0.50192042     0.00300
C10         C  0.48478926  0.57105898  0.50061596    -0.22600
C11         C  0.44462397  0.56280935  0.49406849    -0.22800
C12         C  0.40716447  0.57767769  0.49190797     0.00200
H13         H  0.52061125  0.56355549  0.50328561     0.14000
H14         H  0.44278327  0.54754351  0.49173681     0.14000
N15         N  0.78505133  0.66506600  0.48504587    -0.02300
C16         C  0.73763526  0.67018560  0.49162346     0.00300
C17         C  0.72641182  0.69003086  0.49089636    -0.22600
C18         C  0.76817176  0.69737275  0.48365443    -0.22800
C19         C  0.80372967  0.68179065  0.48029272     0.00200
H20         H  0.69155406  0.69829120  0.49504576     0.14000
H21         H  0.77232317  0.71248096  0.48263353     0.14000
O22         O  0.07410753  0.47313390  0.50988589    -0.71800
O23         O  0.98902283  0.52406379  0.51137380    -0.72800
O24         O  0.97472974  0.48481714  0.50531028    -0.61400
O25         O  0.08831748  0.51260249  0.51619412    -0.69800
O26         O  0.09148575  0.51541442  0.43890991    -0.69300
O27         O  0.98114791  0.48561965  0.42794388    -0.60600
O28         O  0.99141463  0.52549872  0.43384788    -0.73100
O29         O  0.08130257  0.47537382  0.43277811    -0.71900
Cu30       Cu  0.03141617  0.49856383  0.51331663     1.04600
Cu31       Cu  0.03658599  0.50054282  0.43065631     1.04300
C32         C  0.09092150  0.46605875  0.47123880     0.94400
C33         C  0.97665256  0.53285797  0.47289229     0.93600
C34         C  0.96019867  0.48064431  0.46513876     0.85700
C35         C  0.10721281  0.51884734  0.47918692     0.92000
N36         N  0.64541142  0.40417049  0.46571711    -0.02300
C37         C  0.59718012  0.40824314  0.46633393     0.00300
C38         C  0.58322934  0.42727549  0.45305864    -0.22600
C39         C  0.62374325  0.43520236  0.44400519    -0.22800
C40         C  0.66140721  0.42081952  0.45194459     0.00200
H41         H  0.54729411  0.43456981  0.44950986     0.14000
H42         H  0.62554979  0.45000637  0.43355952     0.14000
C43         C  0.90183345  0.25176691  0.57028261     0.87700
C44         C  0.94508218  0.26249352  0.56643049    -0.52600
C45         C  0.94651817  0.27379722  0.52702409     0.10600
C46         C  0.90399592  0.27331139  0.49442561     0.21500
C47         C  0.85878604  0.26766985  0.56502606    -0.53300
C48         C  0.86012767  0.27910224  0.52585577     0.10700
C49         C  0.90288028  0.24055355  0.52402126    -0.52800
C50         C  0.90413755  0.25182269  0.48454364     0.11300
H51         H  0.97300697  0.26072615  0.59231982     0.15800
H52         H  0.90488435  0.28248975  0.46238599     0.01500
H53         H  0.83034934  0.27010336  0.59082899     0.16100
H54         H  0.90228242  0.22519813  0.52162370     0.15900
C55         C  0.15909391  0.74573460  0.58860415     0.87700
C56         C  0.11313489  0.73727834  0.57974877    -0.52600
C57         C  0.11331965  0.72726124  0.53924217     0.10600
C58         C  0.15945279  0.72657779  0.51062710     0.21500
C59         C  0.19882086  0.72828195  0.58516068    -0.53300
C60         C  0.19885767  0.71813948  0.54471288     0.10700
C61         C  0.16648399  0.75776617  0.54401395    -0.52800
C62         C  0.16582178  0.74793765  0.50308906     0.11300
H63         H  0.08280976  0.73915868  0.60349825     0.15800
H64         H  0.15919016  0.71842483  0.47773621     0.01500
H65         H  0.22596508  0.72435741  0.61113253     0.16100
H66         H  0.16978022  0.77299971  0.54469782     0.15900
N67         N  0.92381364  0.15397747  0.93711291    -0.26100
N68         N  0.91721780  0.17053501  0.95928834    -0.34000
C69         C  0.91096863  0.18510822  0.92754012     0.02200
C70         C  0.91325719  0.17744408  0.88304681     0.08200
C71         C  0.92140696  0.15761549  0.89061759    -0.04900
H72         H  0.90532835  0.20021645  0.93625328     0.08900
H73         H  0.92694124  0.14663142  0.86426599     0.10100
Cu74       Cu  0.91810856  0.17254605  0.03191773     0.44200
Cu75       Cu  0.93916180  0.12731469  0.97173792     0.42000
Cu76       Cu  0.94326292  0.12783790  0.09951729     0.43900
N77         N  0.92085833  0.17134471  0.10476591    -0.33500
N78         N  0.92963440  0.15513790  0.12956422    -0.27800
C79         C  0.92959420  0.15945813  0.17533048    -0.03900
C80         C  0.92069707  0.17942034  0.17986097     0.08400
C81         C  0.91515971  0.18633513  0.13403264     0.02200
H82         H  0.93548382  0.14869207  0.20300036     0.09800
H83         H  0.90841964  0.20124656  0.12245340     0.08900
N84         N  0.95869544  0.10277774  0.06008042    -0.35000
N85         N  0.95748305  0.10271367  0.01380804    -0.27100
C86         C  0.97016673  0.08454242  0.99917229    -0.02400
C87         C  0.97999779  0.07241649  0.03792386     0.06200
C88         C  0.97200637  0.08457685  0.07594406     0.04300
H89         H  0.97129611  0.08049306  0.96282388     0.09400
H90         H  0.97618136  0.08053749  0.11255944     0.08300
N91         N  0.11687297  0.84476932  0.94543007    -0.26100
N92         N  0.12864443  0.82842727  0.96916140    -0.34000
C93         C  0.13525178  0.81377090  0.93885323     0.02200
C94         C  0.12723295  0.82109857  0.89359358     0.08200
C95         C  0.11590534  0.84087911  0.89942713    -0.04900
H96         H  0.14597941  0.79888907  0.94923088     0.08900
H97         H  0.10700319  0.85169369  0.87221662     0.10100
Cu98       Cu  0.13540669  0.82665885  0.04211592     0.44200
Cu99       Cu  0.10222762  0.87170397  0.97704662     0.42000
Cu100      Cu  0.11273625  0.87157839  0.10406763     0.43900
N101        N  0.13895610  0.82843363  0.11505687    -0.33500
N102        N  0.13044475  0.84485406  0.13761789    -0.27800
C103        C  0.13421458  0.84116397  0.18398360    -0.03900
C104        C  0.14593912  0.82137389  0.19150224     0.08400
C105        C  0.14852089  0.81388231  0.14657579     0.02200
H106        H  0.12751206  0.85220316  0.21003539     0.09800
H107        H  0.15654306  0.79889754  0.13721314     0.08900
N108        N  0.09451232  0.89650368  0.06330506    -0.35000
N109        N  0.09002944  0.89661518  0.01727503    -0.27100
C110        C  0.07720272  0.91494683  0.00217210    -0.02400
C111        C  0.07381966  0.92704952  0.04039362     0.06200
C112        C  0.08495057  0.91471919  0.07853538     0.04300
H113        H  0.07132171  0.91917464  0.96586191     0.09400
H114        H  0.08520841  0.91857798  0.11496292     0.08300
C115        C  0.03130582  0.02152615  0.00105221    -0.27000
C116        C  0.02017653  0.01038210  0.03990056     0.06600
C117        C  0.99675343  0.01976998  0.07848452     0.26200
C118        C  0.98420639  0.03987589  0.07776716    -0.11500
C119        C  0.99478024  0.05108399  0.03863646    -0.25500
C120        C  0.01911615  0.04162874  0.00039600     0.37000
C121        C  0.03359092  0.98904830  0.04009281     0.06600
F122        F  0.98484833  0.00943010  0.11637797    -0.19300
H123        H  0.96537791  0.04662989  0.10762537     0.16400
F124        F  0.03254619  0.05176850  0.96284497    -0.23000
H125        H  0.05014976  0.01463228  0.97133377     0.18200
C126        C  0.01796635  0.97781918  0.00479422     0.26200
C127        C  0.03126229  0.95776011  0.00503569    -0.11500
C128        C  0.06043589  0.94843507  0.04042597    -0.25500
C129        C  0.07641244  0.95977628  0.07550650     0.37100
C130        C  0.06286707  0.97981366  0.07534167    -0.27200
F131        F  0.98890715  0.98621363  0.97065158    -0.19300
H132        H  0.01807425  0.94948824  0.97778718     0.16400
F133        F  0.10645765  0.95167877  0.10915151    -0.23000
H134        H  0.07595989  0.98821552  0.10241663     0.18200
C135        C  0.11802666  0.78514746  0.67895073    -0.27000
C136        C  0.14494131  0.77885984  0.71860208     0.06600
C137        C  0.17692779  0.76168766  0.71585821     0.26200
C138        C  0.18218366  0.75120229  0.67439038    -0.11500
C139        C  0.15558724  0.75742562  0.63409901    -0.25500
C140        C  0.12272974  0.77452404  0.63754286     0.37000
C141        C  0.13904736  0.78991892  0.76301455     0.06600
F142        F  0.20365136  0.75507849  0.75335537    -0.19300
H143        H  0.20661989  0.73794235  0.67521265     0.16400
F144        F  0.09449360  0.78087969  0.60090163    -0.23000
H145        H  0.09245918  0.79815485  0.68036429     0.18200
C146        C  0.14367272  0.80963129  0.76375243     0.26200
C147        C  0.13950550  0.81964478  0.80606317    -0.11500
C148        C  0.13058864  0.81029140  0.84868554    -0.25500
C149        C  0.12504764  0.79061915  0.84762013     0.37100
C150        C  0.12939232  0.78063283  0.80536124    -0.27200
F151        F  0.15377441  0.81907548  0.72377200    -0.19300
H152        H  0.14421229  0.83469815  0.80548026     0.16400
F153        F  0.11416188  0.78103623  0.88708071    -0.23000
H154        H  0.12478498  0.76555714  0.80564749     0.18200
C155        C  0.13254513  0.76461994  0.37868825    -0.27000
C156        C  0.16433157  0.77782011  0.36874193     0.06600
C157        C  0.19766617  0.78065029  0.40306999     0.26200
C158        C  0.19841222  0.77074747  0.44629928    -0.11500
C159        C  0.16650665  0.75761224  0.45612173    -0.25500
C160        C  0.13370044  0.75455172  0.42162884     0.37000
C161        C  0.16148892  0.78886287  0.32320752     0.06600
F162        F  0.23005874  0.79276701  0.39464560    -0.19300
H163        H  0.22419151  0.77327586  0.47214073     0.16400
F164        F  0.10106950  0.74255382  0.43013038    -0.23000
H165        H  0.10580431  0.76243104  0.35354903     0.18200
C166        C  0.15689242  0.77964577  0.28051702     0.26200
C167        C  0.15218954  0.79026220  0.23831075    -0.11500
C168        C  0.15216423  0.81036645  0.23715892    -0.25500
C169        C  0.15779237  0.81951842  0.27995707     0.37100
C170        C  0.16205477  0.80888680  0.32221795    -0.27200
F171        F  0.15762912  0.76026011  0.27936433    -0.19300
H172        H  0.14809193  0.78258807  0.20650565     0.16400
F173        F  0.15984186  0.83869257  0.28147089    -0.23000
H174        H  0.16512412  0.81644809  0.35447246     0.18200
C175        C  0.89510929  0.23989385  0.70233076    -0.27000
C176        C  0.90573398  0.21968186  0.70445376     0.06600
C177        C  0.91524971  0.20985714  0.66202459     0.26200
C178        C  0.91294555  0.21993885  0.61900452    -0.11500
C179        C  0.90198061  0.24021029  0.61671966    -0.25500
C180        C  0.89450759  0.25002840  0.65951620     0.37000
C181        C  0.90724808  0.20900525  0.75066252     0.06600
F182        F  0.92875748  0.19049033  0.66198755    -0.19300
H183        H  0.92177546  0.21161483  0.58798783     0.16400
F184        F  0.88692815  0.26958566  0.66015466    -0.23000
H185        H  0.88709282  0.24800999  0.73396831     0.18200
C186        C  0.92707706  0.21611041  0.79069279     0.26200
C187        C  0.92805306  0.20595002  0.83352335    -0.11500
C188        C  0.91052232  0.18824259  0.83750937    -0.25500
C189        C  0.89081872  0.18107527  0.79773020     0.37100
C190        C  0.88865264  0.19147390  0.75517381    -0.27200
F191        F  0.94709041  0.23254761  0.78834317    -0.19300
H192        H  0.94386478  0.21172652  0.86342445     0.16400
F193        F  0.87233597  0.16428338  0.80017054    -0.23000
H194        H  0.87181997  0.18582875  0.72575104     0.18200
C195        C  0.95300538  0.22450986  0.37716521    -0.27000
C196        C  0.91248129  0.22529313  0.34912242     0.06600
C197        C  0.86964445  0.23587852  0.36511628     0.26200
C198        C  0.86740227  0.24491895  0.40864322    -0.11500
C199        C  0.90763865  0.24366151  0.43688729    -0.25500
C200        C  0.95066683  0.23358501  0.42057432     0.37000
C201        C  0.91462263  0.21385291  0.30534372     0.06600
F202        F  0.82929953  0.23658322  0.34003520    -0.19300
H203        H  0.83373348  0.25226799  0.42110907     0.16400
F204        F  0.99023985  0.23224673  0.44706819    -0.23000
H205        H  0.98646577  0.21658807  0.36568159     0.18200
C206        C  0.89631131  0.22192223  0.26269575     0.26200
C207        C  0.89812587  0.21064563  0.22246881    -0.11500
C208        C  0.91853242  0.19108606  0.22347207    -0.25500
C209        C  0.93740682  0.18316637  0.26619957     0.37100
C210        C  0.93530370  0.19441821  0.30635448    -0.27200
F211        F  0.87775863  0.24083765  0.25946178    -0.19300
H212        H  0.88333963  0.21734606  0.19049231     0.16400
F213        F  0.95902673  0.16468010  0.26947458    -0.23000
H214        H  0.94972997  0.18782391  0.33865026     0.18200
C215        C  0.77120013  0.31759530  0.46758095    -0.27000
C216        C  0.76396618  0.33172903  0.50222768     0.06600
C217        C  0.78753971  0.32807726  0.54518932     0.26200
C218        C  0.81777663  0.31074077  0.55292629    -0.11500
C219        C  0.82570177  0.29684606  0.51786135    -0.25500
C220        C  0.80205015  0.30040581  0.47509571     0.37000
C221        C  0.73288737  0.35035358  0.49280212     0.06600
F222        F  0.78292258  0.34157823  0.57896870    -0.19300
H223        H  0.83621110  0.30839007  0.58591840     0.16400
F224        F  0.80815400  0.28716818  0.44081972    -0.23000
H225        H  0.75294265  0.31989974  0.43450077     0.18200
C226        C  0.73860782  0.36106263  0.45143111     0.26200
C227        C  0.70950893  0.37855835  0.44273212    -0.11500
C228        C  0.67422035  0.38583700  0.47499512    -0.25500
C229        C  0.66845442  0.37523613  0.51646177     0.37100
C230        C  0.69748263  0.35764439  0.52516388    -0.27200
F231        F  0.77322704  0.35487683  0.41992116    -0.19300
H232        H  0.71452564  0.38653027  0.41065581     0.16400
F233        F  0.63563641  0.38212854  0.54903049    -0.23000
H234        H  0.69221654  0.34966861  0.55718879     0.18200
C235        C  0.77043965  0.44189311  0.41246060    -0.27000
C236        C  0.79916650  0.43882011  0.45221834     0.06600
C237        C  0.78473057  0.42753503  0.48968133     0.26200
C238        C  0.74124092  0.42039288  0.48817657    -0.11500
C239        C  0.71141204  0.42447250  0.44947899    -0.25500
C240        C  0.72700747  0.43485211  0.41107852     0.37000
C241        C  0.84167738  0.44881163  0.45582684     0.06600
F242        F  0.81206596  0.42388381  0.52827329    -0.19300
H243        H  0.72971488  0.41260501  0.51832377     0.16400
F244        F  0.69927288  0.43882848  0.37284259    -0.23000
H245        H  0.78048283  0.45061221  0.38330360     0.18200
C246        C  0.87533304  0.44838863  0.41919614     0.26200
C247        C  0.91352716  0.45887544  0.42220255    -0.11500
C248        C  0.91912237  0.46988591  0.46183645    -0.25500
C249        C  0.88534149  0.47032939  0.49835352     0.37100
C250        C  0.84712421  0.45993638  0.49521863    -0.27200
F251        F  0.87170397  0.43760833  0.38081987    -0.19300
H252        H  0.93912016  0.45818017  0.39370864     0.16400
F253        F  0.88832714  0.48128235  0.53654789    -0.23000
H254        H  0.82102423  0.46094593  0.52328648     0.18200
C255        C  0.91611372  0.70286582  0.45354791    -0.27000
C256        C  0.94671794  0.69406583  0.48834797     0.06600
C257        C  0.93193761  0.67919711  0.51633646     0.26200
C258        C  0.88640695  0.67414762  0.51123826    -0.11500
C259        C  0.85484797  0.68388297  0.47845301    -0.25500
C260        C  0.87064531  0.69792788  0.44872865     0.37000
C261        C  0.99082700  0.70222809  0.49880091     0.06600
F262        F  0.95977073  0.67069454  0.55125247    -0.19300
H263        H  0.87472060  0.66359210  0.53521687     0.16400
F264        F  0.84132027  0.70747864  0.41624878    -0.23000
H265        H  0.92676975  0.71421573  0.43129223     0.18200
C266        C  0.03501009  0.69053563  0.50433086     0.26200
C267        C  0.07521447  0.69877899  0.51638402    -0.11500
C268        C  0.07174063  0.71867489  0.52370393    -0.25500
C269        C  0.02807076  0.73038024  0.51697600     0.37100
C270        C  0.98816105  0.72223297  0.50455690    -0.27200
F271        F  0.03940962  0.67124451  0.49769535    -0.19300
H272        H  0.10884941  0.68960023  0.52100637     0.16400
F273        F  0.02415577  0.74975556  0.52206766    -0.23000
H274        H  0.95469765  0.73157332  0.50043463     0.18200
C275        C  0.83299692  0.61388217  0.51704247    -0.27000
C276        C  0.86223404  0.60834604  0.47814634     0.06600
C277        C  0.86489904  0.62179226  0.44121826     0.26200
C278        C  0.83928183  0.64033753  0.44364395    -0.11500
C279        C  0.81050508  0.64581564  0.48266803    -0.25500
C280        C  0.80758595  0.63245707  0.51945562     0.37000
C281        C  0.89065892  0.58878902  0.47694921     0.06600
F282        F  0.89338382  0.61724019  0.40345424    -0.19300
H283        H  0.84194313  0.65053623  0.41510997     0.16400
F284        F  0.78132806  0.63759930  0.55831952    -0.23000
H285        H  0.82992531  0.60380559  0.54575220     0.18200
C286        C  0.91739568  0.58128756  0.51593429     0.26200
C287        C  0.94437968  0.56300622  0.51447104    -0.11500
C288        C  0.94602787  0.55185909  0.47398548    -0.25500
C289        C  0.91918299  0.55930092  0.43497608     0.37100
C290        C  0.89161959  0.57751845  0.43667409    -0.27200
F291        F  0.91883070  0.59189158  0.55498939    -0.19300
H292        H  0.96503143  0.55775976  0.54484506     0.16400
F293        F  0.91890943  0.54889557  0.39545265    -0.23000
H294        H  0.87072978  0.58278828  0.40647635     0.18200
C295        C  0.62969814  0.64925915  0.53559697    -0.27000
C296        C  0.62492689  0.63559357  0.50150124     0.06600
C297        C  0.65959912  0.63224019  0.46595403     0.26200
C298        C  0.69779972  0.64282790  0.46404591    -0.11500
C299        C  0.70152084  0.65702899  0.49720583    -0.25500
C300        C  0.66736922  0.66001145  0.53332490     0.37000
C301        C  0.58335262  0.62511348  0.50308574     0.06600
F302        F  0.65631242  0.61880892  0.43305249    -0.19300
H303        H  0.72343564  0.64045387  0.43569071     0.16400
F304        F  0.67023080  0.67349154  0.56622241    -0.23000
H305        H  0.60345838  0.65193991  0.56335611     0.18200
C306        C  0.57651693  0.61272013  0.54098995     0.26200
C307        C  0.53809073  0.60235269  0.54150872    -0.11500
C308        C  0.50529945  0.60448632  0.50484711    -0.25500
C309        C  0.51116821  0.61737221  0.46767304     0.37100
C310        C  0.55014448  0.62752849  0.46674251    -0.27200
F311        F  0.60816496  0.61002319  0.57644932    -0.19300
H312        H  0.53456537  0.59220062  0.56998670     0.16400
F313        F  0.48097328  0.61921985  0.43099242    -0.23000
H314        H  0.55480698  0.63711768  0.43738415     0.18200
C315        C  0.32919491  0.63748813  0.47182923    -0.27000
C316        C  0.33485999  0.64947391  0.50963454     0.06600
C317        C  0.37214954  0.64375521  0.54109182     0.26200
C318        C  0.40141703  0.62608069  0.53600590    -0.11500
C319        C  0.39456735  0.61377291  0.49931951    -0.25500
C320        C  0.35888562  0.61988235  0.46648499     0.37000
C321        C  0.30029480  0.66722937  0.51787077     0.06600
F322        F  0.38021545  0.65524234  0.57694164    -0.19300
H323        H  0.42881163  0.62174739  0.56153162     0.16400
F324        F  0.35282910  0.60886701  0.42915468    -0.23000
H325        H  0.30090634  0.64151150  0.44705002     0.18200
C326        C  0.28679209  0.68084577  0.48180631     0.26200
C327        C  0.25360497  0.69725532  0.49056756    -0.11500
C328        C  0.23340590  0.70047144  0.53537796    -0.25500
C329        C  0.24646459  0.68668465  0.57116784     0.37100
C330        C  0.27944849  0.67034203  0.56239681    -0.27200
F331        F  0.30651986  0.67855535  0.43843264    -0.19300
H332        H  0.24439278  0.70765990  0.46247028     0.16400
F333        F  0.22620648  0.68861251  0.61438214    -0.23000
H334        H  0.28811731  0.65985709  0.59044116     0.18200
C335        C  0.21202839  0.54090221  0.52553405    -0.27000
C336        C  0.22438916  0.55160391  0.48630779     0.06600
C337        C  0.19673347  0.55209491  0.44577848     0.26200
C338        C  0.15871332  0.54154220  0.44400571    -0.11500
C339        C  0.14704809  0.53034333  0.48265509    -0.25500
C340        C  0.17370695  0.53040169  0.52391624     0.37000
C341        C  0.26878033  0.56049951  0.48593558     0.06600
F342        F  0.20672102  0.56272357  0.40766250    -0.19300
H343        H  0.13841065  0.54211113  0.41210440     0.16400
F344        F  0.16401321  0.51977369  0.56213209    -0.23000
H345        H  0.23319170  0.54008464  0.55691873     0.18200
C346        C  0.27942998  0.57267628  0.52180964     0.26200
C347        C  0.32346977  0.57949977  0.52216762    -0.11500
C348        C  0.35751675  0.57405572  0.48716015    -0.25500
C349        C  0.34621855  0.56239040  0.45073955     0.37100
C350        C  0.30233441  0.55578574  0.45009860    -0.27200
F351        F  0.24765414  0.57769270  0.55678027    -0.19300
H352        H  0.33184419  0.58824500  0.55088452     0.16400
F353        F  0.37841840  0.55685671  0.41643319    -0.23000
H354        H  0.29528834  0.54628007  0.42241893     0.18200
C355        C  0.41519623  0.36253688  0.44797355    -0.27000
C356        C  0.44674438  0.36156874  0.48558839     0.06600
C357        C  0.43807214  0.35083229  0.52592552     0.26200
C358        C  0.39909645  0.34076756  0.52801603    -0.11500
C359        C  0.36762037  0.34158242  0.49035202    -0.25500
C360        C  0.37573547  0.35266616  0.45031748     0.37000
C361        C  0.48755769  0.37241894  0.48342705     0.06600
F362        F  0.46788254  0.34979493  0.56284714    -0.19300
H363        H  0.39371720  0.33209837  0.55890907     0.16400
F364        F  0.34697302  0.35315226  0.41269868    -0.23000
H365        H  0.42133892  0.37087712  0.41673945     0.18200
C366        C  0.52865412  0.36582198  0.45731792     0.26200
C367        C  0.56590449  0.37692000  0.45385352    -0.11500
C368        C  0.56240032  0.39474581  0.47622643    -0.25500
C369        C  0.52168424  0.40093519  0.50348329     0.37100
C370        C  0.48483910  0.38981121  0.50713808    -0.27200
F371        F  0.53228265  0.34885629  0.43457429    -0.19300
H372        H  0.59642034  0.37200403  0.43203672     0.16400
F373        F  0.51707333  0.41800165  0.52591407    -0.23000
H374        H  0.45350157  0.39500989  0.52760510     0.18200
C375        C  0.05090384  0.30127973  0.54194577    -0.27000
C376        C  0.07085741  0.30070652  0.49664718     0.06600
C377        C  0.04691909  0.29271758  0.46058674     0.26200
C378        C  0.00551999  0.28466993  0.47035197    -0.11500
C379        C  0.98698093  0.28447507  0.51607698    -0.25500
C380        C  0.00925490  0.29346248  0.55154645     0.39000
C381        C  0.11842961  0.30682937  0.48849081     0.06600
F382        F  0.06387983  0.29240722  0.41596260    -0.19300
H383        H  0.98902710  0.27791058  0.44238092     0.16400
F384        F  0.99102711  0.29458735  0.59569708    -0.23000
H385        H  0.06850656  0.30714136  0.57055921     0.18200
C386        C  0.13097104  0.32355080  0.50882828     0.26200
C387        C  0.17780331  0.32755170  0.50590902    -0.11500
C388        C  0.21281216  0.31520378  0.48190269    -0.25500
C389        C  0.19958770  0.29909723  0.45950228     0.37100
C390        C  0.15322525  0.29490340  0.46321046    -0.27200
F391        F  0.09821973  0.33584896  0.53231776    -0.19300
H392        H  0.18694334  0.33984264  0.52425150     0.16400
F393        F  0.23195012  0.28699993  0.43499438    -0.23000
H394        H  0.14513943  0.28178272  0.44780100     0.18200
C395        C  0.20369178  0.37749404  0.43644766    -0.27000
C396        C  0.20761857  0.39092804  0.47158272     0.06600
C397        C  0.23855508  0.38553152  0.50906571     0.26200
C398        C  0.26410878  0.36697532  0.51180064    -0.11500
C399        C  0.25912691  0.35337728  0.47752479    -0.25500
C400        C  0.22911294  0.35883558  0.43941847     0.37000
C401        C  0.17777188  0.41015902  0.47059897     0.06600
F402        F  0.24399132  0.39823408  0.54313173    -0.19300
H403        H  0.28704730  0.36300271  0.54138459     0.16400
F404        F  0.22435526  0.34608899  0.40529429    -0.23000
H405        H  0.17998326  0.38130769  0.40735415     0.18200
C406        C  0.17773231  0.42277317  0.43167590     0.26200
C407        C  0.14957736  0.44092500  0.43200452    -0.11500
C408        C  0.12098779  0.44684880  0.47111969    -0.25500
C409        C  0.12076809  0.43403462  0.50976237     0.37100
C410        C  0.14886763  0.41597178  0.50935857    -0.27200
F411        F  0.20577584  0.41774652  0.39386663    -0.19300
H412        H  0.15051026  0.45043036  0.40176335     0.16400
F413        F  0.09257755  0.43870288  0.54767217    -0.23000
H414        H  0.14769464  0.40635518  0.53937221     0.18200
loop_ 
_geom_bond_atom_site_label_1 
_geom_bond_atom_site_label_2 
_geom_bond_distance 
_geom_bond_site_symmetry_2 
_ccdc_geom_bond_type 
N1            C5   1.363       .  A
N1            C2   1.361       .  A
N1          C399   1.443       .  S
C2            C3   1.380       .  A
C2          C359   1.481       .  S
C3            C4   1.372       .  A
C3            H6   1.082       .  S
C4            C5   1.386       .  A
C4            H7   1.082       .  S
C5          C388   1.490       .  S
N8           C12   1.362       .  A
N8            C9   1.362       .  A
N8          C319   1.447       .  S
C9           C10   1.381       .  A
C9          C308   1.479       .  S
C10          C11   1.371       .  A
C10          H13   1.082       .  S
C11          C12   1.382       .  A
C11          H14   1.082       .  S
C12         C348   1.481       .  S
N15          C19   1.359       .  A
N15          C16   1.359       .  A
N15         C279   1.440       .  S
C16          C17   1.382       .  A
C16         C299   1.482       .  S
C17          C18   1.374       .  A
C17          H20   1.082       .  S
C18          C19   1.384       .  A
C18          H21   1.082       .  S
C19         C259   1.485       .  S
O22         Cu30   2.013       .  S
O22          C32   1.279       .  A
O23         Cu30   2.010   1_655  S
O23          C33   1.278       .  A
O24         Cu30   2.013   1_655  S
O24          C34   1.279       .  A
O25         Cu30   2.017       .  S
O25          C35   1.278       .  A
O26         Cu31   2.019       .  S
O26          C35   1.280       .  A
O27         Cu31   2.019   1_655  S
O27          C34   1.279       .  A
O28         Cu31   2.021   1_655  S
O28          C33   1.279       .  A
O29         Cu31   2.024       .  S
O29          C32   1.280       .  A
Cu30        Cu31   2.367       .  S
C32         C408   1.489       .  S
C33         C288   1.485       .  S
C34         C248   1.485       .  S
C35         C339   1.489       .  S
N36          C40   1.362       .  A
N36          C37   1.363       .  A
N36         C228   1.445       .  S
C37          C38   1.384       .  A
C37         C368   1.486       .  S
C38          C39   1.371       .  A
C38          H41   1.082       .  S
C39          C40   1.381       .  A
C39          H42   1.082       .  S
C40         C239   1.484       .  S
C43          C44   1.535       .  S
C43          C49   1.549       .  S
C43          C47   1.542       .  S
C43         C179   1.541       .  S
C44          H51   1.086       .  S
C44          C45   1.367       .  D
C45          C46   1.543       .  S
C45         C379   1.489       .  S
C46          C50   1.538       .  S
C46          C48   1.541       .  S
C46          H52   1.111       .  S
C47          H53   1.086       .  S
C47          C48   1.367       .  D
C48         C219   1.486       .  S
C49          H54   1.083       .  S
C49          C50   1.367       .  D
C50         C199   1.484       .  S
C55          C56   1.539       .  S
C55          C61   1.543       .  S
C55          C59   1.547       .  S
C55         C139   1.545       .  S
C56          H63   1.087       .  S
C56          C57   1.365       .  D
C57          C58   1.535       .  S
C57         C268   1.480       .  S
C58          C62   1.545       .  S
C58          C60   1.541       .  S
C58          H64   1.110       .  S
C59          H65   1.082       .  S
C59          C60   1.369       .  D
C60         C328   1.494       .  S
C61          H66   1.086       .  S
C61          C62   1.371       .  D
C62         C159   1.493       .  S
N67          C71   1.349       .  A
N67          N68   1.322       .  A
N67         Cu75   2.090       .  S
N68          C69   1.347       .  A
N68         Cu74   2.084   1_556  S
C69          C70   1.387       .  A
C69          H72   1.082       .  S
C70          C71   1.389       .  A
C70         C188   1.490       .  S
C71          H73   1.082       .  S
Cu74         N77   2.084       .  S
Cu75         N85   2.090   1_556  S
Cu76         N78   2.097       .  S
Cu76         N84   2.096       .  S
N77          C81   1.346       .  A
N77          N78   1.322       .  A
N78          C79   1.348       .  A
C79          C80   1.394       .  A
C79          H82   1.080       .  S
C80          C81   1.390       .  A
C80         C208   1.500       .  S
C81          H83   1.082       .  S
N84          C88   1.349       .  A
N84          N85   1.323       .  A
N85          C86   1.347   1_554  A
C86          C87   1.389   1_556  A
C86          H89   1.081       .  S
C87          C88   1.391       .  A
C87         C119   1.494       .  S
C88          H90   1.082       .  S
N91          C95   1.349       .  A
N91          N92   1.323       .  A
N91         Cu99   2.095       .  S
N92          C93   1.348       .  A
N92         Cu98   2.096   1_556  S
C93          C94   1.391       .  A
C93          H96   1.081       .  S
C94          C95   1.391       .  A
C94         C148   1.498       .  S
C95          H97   1.082       .  S
Cu98        N101   2.095       .  S
Cu99        N109   2.095   1_556  S
Cu100       N102   2.087       .  S
Cu100       N108   2.087       .  S
N101        C105   1.348       .  A
N101        N102   1.321       .  A
N102        C103   1.347       .  A
C103        C104   1.393       .  A
C103        H106   1.080       .  S
C104        C105   1.394       .  A
C104        C168   1.502       .  S
C105        H107   1.081       .  S
N108        C112   1.347       .  A
N108        N109   1.323       .  A
N109        C110   1.349       .  A
C110        C111   1.390       .  A
C110        H113   1.082   1_554  S
C111        C112   1.389       .  A
C111        C128   1.493       .  S
C112        H114   1.081       .  S
C115        C116   1.404       .  A
C115        C120   1.402       .  A
C115        H125   1.083   1_554  S
C116        C117   1.407   1_455  A
C116        C121   1.490   1_545  S
C117        C118   1.404       .  A
C117        F122   1.357       .  S
C118        C119   1.408       .  A
C118        H123   1.082       .  S
C119        C120   1.411   1_655  A
C120        F124   1.356   1_554  S
C121        C126   1.407       .  A
C121        C130   1.404       .  A
C126        C127   1.403       .  A
C126        F131   1.357   1_454  S
C127        C128   1.408       .  A
C127        H132   1.082   1_554  S
C128        C129   1.411       .  A
C129        C130   1.403       .  A
C129        F133   1.356       .  S
C130        H134   1.083       .  S
C135        C136   1.404       .  A
C135        C140   1.405       .  A
C135        H145   1.084       .  S
C136        C137   1.405       .  A
C136        C141   1.495       .  S
C137        C138   1.402       .  A
C137        F142   1.358       .  S
C138        C139   1.414       .  A
C138        H143   1.079       .  S
C139        C140   1.416       .  A
C140        F144   1.357       .  S
C141        C146   1.407       .  A
C141        C150   1.405       .  A
C146        C147   1.405       .  A
C146        F151   1.357       .  S
C147        C148   1.409       .  A
C147        H152   1.082       .  S
C148        C149   1.411       .  A
C149        C150   1.403       .  A
C149        F153   1.356       .  S
C150        H154   1.083       .  S
C155        C156   1.407       .  A
C155        C160   1.402       .  A
C155        H165   1.083       .  S
C156        C157   1.411       .  A
C156        C161   1.498       .  S
C157        C158   1.404       .  A
C157        F162   1.357       .  S
C158        C159   1.406       .  A
C158        H163   1.083       .  S
C159        C160   1.407       .  A
C160        F164   1.357       .  S
C161        C166   1.408       .  A
C161        C170   1.406       .  A
C166        C167   1.402       .  A
C166        F171   1.357       .  S
C167        C168   1.409       .  A
C167        H172   1.081       .  S
C168        C169   1.414       .  A
C169        C170   1.404       .  A
C169        F173   1.355       .  S
C170        H174   1.083       .  S
C175        C176   1.406       .  A
C175        C180   1.401       .  A
C175        H185   1.082       .  S
C176        C177   1.410       .  A
C176        C181   1.503       .  S
C177        C178   1.403       .  A
C177        F182   1.357       .  S
C178        C179   1.411       .  A
C178        H183   1.078       .  S
C179        C180   1.414       .  A
C180        F184   1.358       .  S
C181        C186   1.413       .  A
C181        C190   1.409       .  A
C186        C187   1.402       .  A
C186        F191   1.357       .  S
C187        C188   1.405       .  A
C187        H192   1.083       .  S
C188        C189   1.407       .  A
C189        C190   1.403       .  A
C189        F193   1.357       .  S
C190        H194   1.082       .  S
C195        C196   1.408       .  A
C195        C200   1.402       .  A
C195        H205   1.083       .  S
C196        C197   1.411       .  A
C196        C201   1.495       .  S
C197        C198   1.404       .  A
C197        F202   1.357       .  S
C198        C199   1.402       .  A
C198        H203   1.082       .  S
C199        C200   1.404       .  A
C200        F204   1.357       .  S
C201        C206   1.408       .  A
C201        C210   1.405       .  A
C206        C207   1.404       .  A
C206        F211   1.357       .  S
C207        C208   1.411       .  A
C207        H212   1.081       .  S
C208        C209   1.412       .  A
C209        C210   1.401       .  A
C209        F213   1.355       .  S
C210        H214   1.083       .  S
C215        C216   1.407       .  A
C215        C220   1.401       .  A
C215        H225   1.083       .  S
C216        C217   1.408       .  A
C216        C221   1.491       .  S
C217        C218   1.401       .  A
C217        F222   1.357       .  S
C218        C219   1.405       .  A
C218        H223   1.083       .  S
C219        C220   1.404       .  A
C220        F224   1.355       .  S
C221        C226   1.408       .  A
C221        C230   1.408       .  A
C226        C227   1.399       .  A
C226        F231   1.357       .  S
C227        C228   1.403       .  A
C227        H232   1.083       .  S
C228        C229   1.406       .  A
C229        C230   1.403       .  A
C229        F233   1.357       .  S
C230        H234   1.083       .  S
C235        C236   1.404       .  A
C235        C240   1.398       .  A
C235        H245   1.083       .  S
C236        C237   1.410       .  A
C236        C241   1.489       .  S
C237        C238   1.403       .  A
C237        F242   1.357       .  S
C238        C239   1.403       .  A
C238        H243   1.083       .  S
C239        C240   1.407       .  A
C240        F244   1.358       .  S
C241        C246   1.408       .  A
C241        C250   1.405       .  A
C246        C247   1.402       .  A
C246        F251   1.357       .  S
C247        C248   1.407       .  A
C247        H252   1.083       .  S
C248        C249   1.408       .  A
C249        C250   1.399       .  A
C249        F253   1.357       .  S
C250        H254   1.083       .  S
C255        C256   1.405       .  A
C255        C260   1.397       .  A
C255        H265   1.083       .  S
C256        C257   1.410       .  A
C256        C261   1.490       .  S
C257        C258   1.403       .  A
C257        F262   1.357       .  S
C258        C259   1.405       .  A
C258        H263   1.083       .  S
C259        C260   1.406       .  A
C260        F264   1.358       .  S
C261        C266   1.410   1_655  A
C261        C270   1.406       .  A
C266        C267   1.405       .  A
C266        F271   1.357       .  S
C267        C268   1.404       .  A
C267        H272   1.083       .  S
C268        C269   1.402       .  A
C269        C270   1.396   1_455  A
C269        F273   1.358       .  S
C270        H274   1.083       .  S
C275        C276   1.407       .  A
C275        C280   1.399       .  A
C275        H285   1.083       .  S
C276        C277   1.409       .  A
C276        C281   1.490       .  S
C277        C278   1.400       .  A
C277        F282   1.357       .  S
C278        C279   1.402       .  A
C278        H283   1.083       .  S
C279        C280   1.403       .  A
C280        F284   1.357       .  S
C281        C286   1.408       .  A
C281        C290   1.407       .  A
C286        C287   1.398       .  A
C286        F291   1.357       .  S
C287        C288   1.405       .  A
C287        H292   1.083       .  S
C288        C289   1.409       .  A
C289        C290   1.402       .  A
C289        F293   1.357       .  S
C290        H294   1.083       .  S
C295        C296   1.401       .  A
C295        C300   1.397       .  A
C295        H305   1.084       .  S
C296        C297   1.407       .  A
C296        C301   1.480       .  S
C297        C298   1.402       .  A
C297        F302   1.357       .  S
C298        C299   1.404       .  A
C298        H303   1.083       .  S
C299        C300   1.407       .  A
C300        F304   1.358       .  S
C301        C306   1.404       .  A
C301        C310   1.405       .  A
C306        C307   1.398       .  A
C306        F311   1.358       .  S
C307        C308   1.404       .  A
C307        H312   1.084       .  S
C308        C309   1.405       .  A
C309        C310   1.402       .  A
C309        F313   1.357       .  S
C310        H314   1.083       .  S
C315        C316   1.407       .  A
C315        C320   1.403       .  A
C315        H325   1.083       .  S
C316        C317   1.409       .  A
C316        C321   1.493       .  S
C317        C318   1.400       .  A
C317        F322   1.357       .  S
C318        C319   1.404       .  A
C318        H323   1.082       .  S
C319        C320   1.408       .  A
C320        F324   1.356       .  S
C321        C326   1.410       .  A
C321        C330   1.405       .  A
C326        C327   1.405       .  A
C326        F331   1.357       .  S
C327        C328   1.406       .  A
C327        H332   1.083       .  S
C328        C329   1.409       .  A
C329        C330   1.399       .  A
C329        F333   1.357       .  S
C330        H334   1.083       .  S
C335        C336   1.405       .  A
C335        C340   1.403       .  A
C335        H345   1.083       .  S
C336        C337   1.406       .  A
C336        C341   1.488       .  S
C337        C338   1.399       .  A
C337        F342   1.357       .  S
C338        C339   1.406       .  A
C338        H343   1.083       .  S
C339        C340   1.411       .  A
C340        F344   1.357       .  S
C341        C346   1.410       .  A
C341        C350   1.404       .  A
C346        C347   1.406       .  A
C346        F351   1.357       .  S
C347        C348   1.404       .  A
C347        H352   1.083       .  S
C348        C349   1.405       .  A
C349        C350   1.395       .  A
C349        F353   1.358       .  S
C350        H354   1.083       .  S
C355        C356   1.405       .  A
C355        C360   1.402       .  A
C355        H365   1.083       .  S
C356        C357   1.403       .  A
C356        C361   1.478       .  S
C357        C358   1.398       .  A
C357        F362   1.357       .  S
C358        C359   1.405       .  A
C358        H363   1.083       .  S
C359        C360   1.405       .  A
C360        F364   1.357       .  S
C361        C366   1.407       .  A
C361        C370   1.399       .  A
C366        C367   1.404       .  A
C366        F371   1.357       .  S
C367        C368   1.405       .  A
C367        H372   1.083       .  S
C368        C369   1.410       .  A
C369        C370   1.396       .  A
C369        F373   1.358       .  S
C370        H374   1.084       .  S
C375        C376   1.406       .  A
C375        C380   1.399       .  A
C375        H385   1.083       .  S
C376        C377   1.411       .  A
C376        C381   1.494       .  S
C377        C378   1.401       .  A
C377        F382   1.357       .  S
C378        C379   1.404   1_455  A
C378        H383   1.083   1_455  S
C379        C380   1.408   1_655  A
C380        F384   1.358   1_455  S
C381        C386   1.411       .  A
C381        C390   1.404       .  A
C386        C387   1.404       .  A
C386        F391   1.357       .  S
C387        C388   1.405       .  A
C387        H392   1.082       .  S
C388        C389   1.408       .  A
C389        C390   1.396       .  A
C389        F393   1.358       .  S
C390        H394   1.083       .  S
C395        C396   1.406       .  A
C395        C400   1.403       .  A
C395        H405   1.083       .  S
C396        C397   1.407       .  A
C396        C401   1.488       .  S
C397        C398   1.398       .  A
C397        F402   1.357       .  S
C398        C399   1.403       .  A
C398        H403   1.083       .  S
C399        C400   1.406       .  A
C400        F404   1.357       .  S
C401        C406   1.407       .  A
C401        C410   1.403       .  A
C406        C407   1.404       .  A
C406        F411   1.357       .  S
C407        C408   1.408       .  A
C407        H412   1.083       .  S
C408        C409   1.410       .  A
C409        C410   1.398       .  A
C409        F413   1.357       .  S
C410        H414   1.083       .  S
