geometry optimzed in LAMMPS
_audit_creation_date              2020-12-01 
_audit_creation_method            'lammps2cif' 
_symmetry_space_group_name_H-M    'P1' 
_symmetry_Int_Tables_number       1 
_symmetry_cell_setting            triclinic 
loop_ 
_symmetry_equiv_pos_as_xyz 
  x,y,z 
_cell_length_a                    32.6500459 
_cell_length_b                    32.4093726899426 
_cell_length_c                    32.042072392809395 
_cell_angle_alpha                 89.5147838476936 
_cell_angle_beta                  90.5492906997635 
_cell_angle_gamma                 89.85155796861997 
loop_ 
_atom_site_label 
_atom_site_type_symbol 
_atom_site_fract_x 
_atom_site_fract_y 
_atom_site_fract_z 
_atom_site_charge 
C1          C  0.78147425  0.51384033  0.03090526     0.90100
C2          C  0.75028954  0.54993080  0.02913055    -0.50100
C3          C  0.72820088  0.55093379  0.99194183     0.13000
C4          C  0.74152394  0.51749896  0.96053133     0.24000
C5          C  0.75455321  0.47533114  0.02187810    -0.50900
C6          C  0.73155666  0.47854709  0.98582288     0.13100
C7          C  0.80815252  0.52057075  0.99354316    -0.50400
C8          C  0.78901432  0.52035475  0.95677081     0.13700
H9          H  0.74214362  0.56799870  0.05619854     0.18200
H10         H  0.72530999  0.51932510  0.92990244     0.03900
H11         H  0.74770658  0.45273376  0.04603278     0.18500
H12         H  0.84161851  0.52056253  0.99563539     0.18300
C13         C  0.51989127  0.72977147  0.96189868     0.90100
C14         C  0.48985479  0.76000020  0.93983439    -0.50100
C15         C  0.46737930  0.78340747  0.96720556     0.13000
C16         C  0.47529915  0.77188459  0.01334968     0.24000
C17         C  0.54521613  0.75761690  0.99127754    -0.50900
C18         C  0.52147912  0.78117135  0.01727387     0.13100
C19         C  0.49415443  0.70343455  0.98985818    -0.50400
C20         C  0.47094566  0.72404684  0.01663799     0.13700
H21         H  0.49118884  0.76677059  0.90662457     0.18200
H22         H  0.45591032  0.78907795  0.03563463     0.03900
H23         H  0.57772097  0.76305973  0.98699871     0.18500
H24         H  0.49385813  0.66977425  0.98839427     0.18300
C25         C  0.02637544  0.54414380  0.77048613     0.90100
C26         C  0.05559576  0.52346409  0.73905174    -0.50100
C27         C  0.03674706  0.49338927  0.71552031     0.13000
C28         C  0.99178498  0.48578781  0.72757447     0.24000
C29         C  0.99002121  0.55919298  0.74330579    -0.50900
C30         C  0.97307291  0.52878029  0.71891964     0.13100
C31         C  0.01013672  0.50959346  0.79688503    -0.50400
C32         C  0.99194022  0.47932415  0.77585654     0.13700
H33         H  0.08607885  0.53499706  0.73251956     0.18200
H34         H  0.97646819  0.46063353  0.71004387     0.03900
H35         H  0.98402583  0.59178689  0.73780324     0.18500
H36         H  0.01154483  0.50961870  0.83095890     0.18300
C37         C  0.52684847  0.02427711  0.71586652     0.90100
C38         C  0.52142519  0.05930230  0.74767128    -0.50100
C39         C  0.48399937  0.05730841  0.76744876     0.13000
C40         C  0.45601351  0.02205442  0.75164003     0.24000
C41         C  0.51905922  0.98448114  0.74227156    -0.50900
C42         C  0.48232862  0.98457862  0.76282470     0.13100
C43         C  0.49123977  0.02936078  0.68616688    -0.50400
C44         C  0.45430216  0.02514923  0.70321624     0.13700
H45         H  0.54626137  0.07915236  0.75780230     0.18200
H46         H  0.42520462  0.02172852  0.76612701     0.03900
H47         H  0.54350709  0.96298780  0.75036386     0.18500
H48         H  0.49523679  0.02944843  0.65231857     0.18300
C49         C  0.72596455  0.98538483  0.52945332     0.90100
C50         C  0.75090266  0.97335257  0.49063676    -0.50100
C51         C  0.77500390  0.00486807  0.47552214     0.13000
C52         C  0.76866211  0.04582799  0.49848789     0.24000
C53         C  0.75864441  0.00221321  0.56022572    -0.50900
C54         C  0.78205983  0.03335313  0.54317195     0.13100
C55         C  0.70070465  0.02213814  0.51664890    -0.50400
C56         C  0.72159532  0.05342693  0.50008657     0.13700
H57         H  0.75505877  0.94142778  0.48149200     0.18200
H58         H  0.78611829  0.07196808  0.48482778     0.03900
H59         H  0.76595113  0.98741760  0.58990823     0.18500
H60         H  0.66729291  0.02258636  0.51823036     0.18300
C61         C  0.03743792  0.79574187  0.48799492     0.90100
C62         C  0.03650704  0.76321935  0.52370872    -0.50100
C63         C  0.99950165  0.74233614  0.52534311     0.13000
C64         C  0.96744188  0.75802288  0.49292318     0.24000
C65         C  0.02589114  0.77011517  0.44861941    -0.50900
C66         C  0.98991401  0.74835102  0.45246932     0.13100
C67         C  0.00185363  0.82366675  0.49671584    -0.50400
C68         C  0.96524849  0.80580662  0.49709482     0.13700
H69         H  0.06356246  0.75368131  0.54124252     0.18200
H70         H  0.93707125  0.74281104  0.49540866     0.03900
H71         H  0.04820186  0.76298443  0.42479875     0.18500
H72         H  0.00484166  0.85727231  0.49760601     0.18300
C73         C  0.20846147  0.50745972  0.03386947     0.90100
C74         C  0.24092264  0.47413921  0.04311974    -0.50100
C75         C  0.26641716  0.46722252  0.00962517     0.13000
C76         C  0.25472698  0.49347049  0.97030778     0.24000
C77         C  0.23387138  0.54526015  0.01886622    -0.50900
C78         C  0.26088156  0.53705873  0.98733131     0.13100
C79         C  0.18550511  0.49101202  0.99705352    -0.50400
C80         C  0.20747261  0.48736094  0.96226133     0.13700
H81         H  0.24729001  0.46250571  0.07440369     0.18200
H82         H  0.27361129  0.48658008  0.94255603     0.03900
H83         H  0.23747702  0.57217502  0.03857121     0.18500
H84         H  0.15201141  0.48954349  0.99665491     0.18300
O85         O  0.01837498  0.56330401  0.03239568    -0.69300
O86         O  0.94076464  0.51814671  0.94000049    -0.70300
O87         O  0.93930357  0.52294197  0.03191402    -0.58900
O88         O  0.02187255  0.55974186  0.94017542    -0.67400
O89         O  0.05618032  0.50106712  0.94543907    -0.66900
O90         O  0.97350875  0.46412288  0.03663819    -0.58200
O91         O  0.97522348  0.45945546  0.94348817    -0.70700
O92         O  0.05278400  0.50452031  0.03650514    -0.69400
Cu93       Cu  0.97913276  0.54305445  0.98572059     1.04600
Cu94       Cu  0.01523774  0.48013993  0.99042686     1.04300
C95         C  0.04685563  0.54129859  0.04961153     0.96900
C96         C  0.94576580  0.48102801  0.92726573     0.96000
C97         C  0.94466104  0.48777413  0.04985849     0.88100
C98         C  0.05243419  0.53717466  0.92901525     0.94400
N99         N  0.91800512  0.46269122  0.89586088     0.00100
C100        C  0.87632219  0.45845036  0.89917093     0.02700
C101        C  0.86276318  0.42356292  0.87929368    -0.20200
C102        C  0.89606375  0.40618709  0.86108208    -0.20400
C103        C  0.92895440  0.43158541  0.86930714     0.02600
H104        H  0.83123293  0.41421872  0.87468863     0.16400
H105        H  0.89471670  0.38207725  0.83788526     0.16400
C106        C  0.95788899  0.54161222  0.27550003     0.90100
C107        C  0.97332216  0.57176291  0.24161865    -0.50100
C108        C  0.00379145  0.55506388  0.21765127     0.13000
C109        C  0.01693496  0.51123194  0.23134744     0.24000
C110        C  0.94563362  0.50260041  0.25090326    -0.50900
C111        C  0.97651821  0.48773236  0.22608962     0.13100
C112        C  0.99524316  0.52985884  0.30077505    -0.50400
C113        C  0.02579150  0.51347132  0.27893974     0.13700
H114        H  0.95860406  0.60107728  0.23439994     0.18200
H115        H  0.04253552  0.49800751  0.21310821     0.03900
H116        H  0.91396131  0.49296818  0.24738484     0.18500
H117        H  0.99629808  0.53120258  0.33480743     0.18300
N118        N  0.91917228  0.47456542  0.08520428     0.00100
C119        C  0.93405625  0.44674382  0.11394914     0.02700
C120        C  0.90586932  0.41593441  0.12126223    -0.20200
C121        C  0.87068004  0.42730205  0.10097716    -0.20400
C122        C  0.87868250  0.46415428  0.08106831     0.02600
H123        H  0.90760899  0.39268889  0.14571977     0.16400
H124        H  0.84081349  0.41377842  0.10602256     0.16400
N125        N  0.08310113  0.55351647  0.89958681     0.00100
C126        C  0.12425047  0.55603949  0.90832463     0.02700
C127        C  0.14004127  0.59311204  0.89497028    -0.20200
C128        C  0.10915643  0.61336353  0.87446620    -0.20400
C129        C  0.07564914  0.58752990  0.87486409     0.02600
H130        H  0.17202966  0.60186339  0.89480125     0.16400
H131        H  0.11346139  0.63981157  0.85409576     0.16400
O132        O  0.43779617  0.55541997  0.97923658    -0.69300
O133        O  0.52499940  0.46746990  0.95152542    -0.70300
O134        O  0.44251501  0.46693899  0.98603610    -0.58900
O135        O  0.52252750  0.55734093  0.94467865    -0.67400
O136        O  0.55118085  0.56150966  0.00732578    -0.66900
O137        O  0.47142629  0.47215548  0.04853166    -0.58200
O138        O  0.55401961  0.47252211  0.01394442    -0.70700
O139        O  0.46648432  0.56156017  0.04166091    -0.69400
Cu140      Cu  0.48124676  0.51185880  0.96314734     1.04600
Cu141      Cu  0.51155567  0.51734344  0.03000403     1.04300
C142        C  0.43735454  0.57107775  0.01583670     0.96900
C143        C  0.55280883  0.45582741  0.97778495     0.96000
C144        C  0.44458218  0.45557349  0.02442072     0.88100
C145        C  0.55041164  0.57245536  0.96881119     0.94400
N146        N  0.58234872  0.59935021  0.95175648     0.00100
C147        C  0.62079230  0.58467838  0.94366822     0.02700
C148        C  0.63447070  0.59910263  0.90570623    -0.20200
C149        C  0.60542715  0.62576800  0.89070237    -0.20400
C150        C  0.57482061  0.62694586  0.91994569     0.02600
H151        H  0.66511702  0.59580031  0.89346930     0.16400
H152        H  0.60973604  0.64733825  0.86512199     0.16400
C153        C  0.46077799  0.23101453  0.98349959     0.90100
C154        C  0.44232990  0.25832220  0.01780588    -0.50100
C155        C  0.47113736  0.28154302  0.03873200     0.13000
C156        C  0.51543538  0.27194203  0.02568485     0.24000
C157        C  0.48568350  0.26161943  0.95642781    -0.50900
C158        C  0.51364598  0.28416691  0.97921402     0.13100
C159        C  0.49184257  0.20405757  0.00516355    -0.50400
C160        C  0.52033442  0.22418490  0.02700480     0.13700
H161        H  0.40970233  0.26469333  0.01935744     0.18200
H162        H  0.53902814  0.28860300  0.04418249     0.03900
H163        H  0.47808241  0.26854519  0.92405112     0.18500
H164        H  0.49134777  0.17041478  0.00360879     0.18300
O165        O  0.48586437  0.05673427  0.05779794    -0.69300
O166        O  0.44624151  0.97072122  0.97157758    -0.70300
O167        O  0.48679403  0.96819819  0.05291328    -0.58900
O168        O  0.44306578  0.06089444  0.97581230    -0.67400
O169        O  0.50128292  0.06333582  0.94113158    -0.66900
O170        O  0.54568990  0.97115925  0.01933530    -0.58200
O171        O  0.50505300  0.97437823  0.93797564    -0.70700
O172        O  0.54398744  0.06068600  0.02308186    -0.69400
Cu173      Cu  0.46336616  0.01423706  0.01542718     1.04600
Cu174      Cu  0.52602872  0.01768293  0.97940974     1.04300
C175        C  0.52231005  0.07110604  0.05459635     0.96900
C176        C  0.46931992  0.95872116  0.94161801     0.96000
C177        C  0.52351044  0.95529964  0.04829909     0.88100
C178        C  0.46428172  0.07585004  0.94568605     0.94400
N179        N  0.45428454  0.92849874  0.91162134     0.00100
C180        C  0.42959917  0.89639930  0.92312643     0.02700
C181        C  0.39902073  0.89046874  0.89382269    -0.20200
C182        C  0.40616566  0.91747802  0.86181072    -0.20400
C183        C  0.44072426  0.93941673  0.87252316     0.02600
H184        H  0.37801513  0.86469204  0.89249768     0.16400
H185        H  0.39126634  0.91696069  0.83147895     0.16400
C186        C  0.55248463  0.00720374  0.28843278     0.90100
C187        C  0.55827022  0.97379671  0.25518479    -0.50100
C188        C  0.52455645  0.96999566  0.22900870     0.13000
C189        C  0.48851088  0.99906282  0.24083983     0.24000
C190        C  0.54078573  0.04642313  0.26260310    -0.50900
C191        C  0.50861183  0.04121742  0.23524319     0.13100
C192        C  0.51514200  0.99370477  0.31156728    -0.50400
C193        C  0.48062658  0.99318117  0.28871615     0.13700
H194        H  0.58773415  0.95965694  0.24889949     0.18200
H195        H  0.46052316  0.99479456  0.22137475     0.03900
H196        H  0.56225205  0.07177078  0.25907763     0.18500
H197        H  0.51477904  0.99237903  0.34568421     0.18300
N198        N  0.54074523  0.92406350  0.07637890     0.00100
C199        C  0.56343336  0.89189716  0.06171900     0.02700
C200        C  0.59795054  0.88567603  0.08608729    -0.20200
C201        C  0.59566404  0.91275429  0.11840145    -0.20400
C202        C  0.55989740  0.93484460  0.11278321     0.02600
H203        H  0.61893135  0.85980422  0.08448508     0.16400
H204        H  0.61476120  0.91199146  0.14622706     0.16400
N205        N  0.44516502  0.10423357  0.91542996     0.00100
C206        C  0.43536527  0.09231982  0.87579308     0.02700
C207        C  0.39814736  0.10848768  0.86320914    -0.20200
C208        C  0.38495888  0.13303191  0.89475275    -0.20400
C209        C  0.41469913  0.13144807  0.92554017     0.02600
H210        H  0.38479716  0.10716356  0.83217781     0.16400
H211        H  0.36001109  0.15505220  0.89229690     0.16400
O212        O  0.04870571  0.49048287  0.43584419    -0.69300
O213        O  0.01476767  0.56974159  0.52947839    -0.70300
O214        O  0.05423056  0.48873399  0.52687976    -0.58900
O215        O  0.00739623  0.57246147  0.44012855    -0.67400
O216        O  0.94902904  0.53810780  0.44265301    -0.66900
O217        O  0.99514612  0.45559671  0.53018033    -0.58200
O218        O  0.95582557  0.53639227  0.53330175    -0.70700
O219        O  0.99057555  0.45592691  0.44034575    -0.69400
Cu220      Cu  0.03337663  0.53120670  0.48274631     1.04600
Cu221      Cu  0.97054939  0.49558558  0.48648576     1.04300
C222        C  0.02630352  0.45991605  0.42445544     0.96900
C223        C  0.97948319  0.56551425  0.54598537     0.96000
C224        C  0.03235222  0.45945144  0.54238466     0.88100
C225        C  0.96966683  0.56917061  0.42909442     0.94400
N226        N  0.96534125  0.59402532  0.57779765     0.00100
C227        C  0.95687085  0.63497748  0.57093399     0.02700
C228        C  0.92514232  0.64783917  0.59570634    -0.20200
C229        C  0.91426330  0.61483909  0.61987040    -0.20400
C230        C  0.93981923  0.58266102  0.60948440     0.02600
H231        H  0.91408139  0.67916157  0.59911394     0.16400
H232        H  0.89401876  0.61603769  0.64640113     0.16400
O233        O  0.55768904  0.06770161  0.47975759    -0.69300
O234        O  0.46336037  0.02188625  0.55293784    -0.70300
O235        O  0.55335458  0.02499643  0.56127056    -0.58900
O236        O  0.46635821  0.06335716  0.47328644    -0.67400
O237        O  0.47151299  0.00490065  0.43863241    -0.66900
O238        O  0.55914425  0.96682006  0.52636023    -0.58200
O239        O  0.46801718  0.96333679  0.51830943    -0.70700
O240        O  0.56157597  0.00938589  0.44476353    -0.69400
Cu241      Cu  0.51028169  0.04657086  0.51775089     1.04600
Cu242      Cu  0.51546479  0.98405774  0.48112531     1.04300
C243        C  0.57431945  0.04633353  0.45067230     0.96900
C244        C  0.44983929  0.98550150  0.54570907     0.96000
C245        C  0.56995940  0.98925639  0.55761953     0.88100
C246        C  0.45394297  0.03997433  0.44342982     0.94400
N247        N  0.59936092  0.97315890  0.58908761     0.00100
C248        C  0.59431922  0.97300210  0.63157396     0.02700
C249        C  0.61284331  0.93921599  0.64988800    -0.20200
C250        C  0.63205403  0.91849280  0.61886204    -0.20400
C251        C  0.62588847  0.94088849  0.58249969     0.02600
H252        H  0.61531862  0.93247209  0.68297644     0.16400
H253        H  0.65445153  0.89418909  0.62391038     0.16400
C254        C  0.22813062  0.03550521  0.52886634     0.90100
C255        C  0.25414227  0.99721419  0.54070492    -0.50100
C256        C  0.27650608  0.98184831  0.50803752     0.13000
C257        C  0.26728575  0.00400720  0.46632596     0.24000
C258        C  0.25931488  0.06562400  0.50912195    -0.50900
C259        C  0.28105423  0.04837391  0.47689606     0.13100
C260        C  0.20070891  0.02245763  0.49362141    -0.50400
C261        C  0.21968380  0.00541911  0.46139339     0.13700
H262        H  0.26044270  0.98869328  0.57299994     0.18200
H263        H  0.28317687  0.99012151  0.43931436     0.03900
H264        H  0.26737110  0.09496924  0.52304420     0.18500
H265        H  0.16733215  0.02426008  0.49503434     0.18300
O266        O  0.96387273  0.95933541  0.50773442    -0.69300
O267        O  0.05807297  0.03512506  0.55012615    -0.70300
O268        O  0.96682256  0.03748852  0.55132493    -0.58900
O269        O  0.05420968  0.95584146  0.50490037    -0.67400
O270        O  0.05365915  0.99293738  0.44675232    -0.66900
O271        O  0.96674012  0.07438139  0.49297501    -0.58200
O272        O  0.05654049  0.07199173  0.49181198    -0.70700
O273        O  0.96243737  0.99634168  0.44945339    -0.69400
Cu274      Cu  0.01096345  0.99590343  0.53059980     1.04600
Cu275      Cu  0.00999611  0.03483494  0.46817765     1.04300
C276        C  0.94742568  0.96704361  0.47199893     0.96900
C277        C  0.07191534  0.06558131  0.52834076     0.96000
C278        C  0.95233129  0.06790587  0.52950938     0.88100
C279        C  0.06767126  0.96177270  0.46776896     0.94400
N280        N  0.91197672  0.94344726  0.45683261     0.00100
C281        C  0.88309643  0.96108517  0.43104847     0.02700
C282        C  0.87322916  0.93485098  0.39877218    -0.20200
C283        C  0.89264470  0.89830672  0.40690326    -0.20400
C284        C  0.91463787  0.90358423  0.44327502     0.02600
H285        H  0.84821855  0.93876866  0.37661880     0.16400
H286        H  0.88639793  0.86936294  0.39148743     0.16400
C287        C  0.97861165  0.23011599  0.49772302     0.90100
C288        C  0.99446774  0.25670143  0.53487951    -0.50100
C289        C  0.02874510  0.27959025  0.52592106     0.13000
C290        C  0.04586332  0.26973508  0.48302943     0.24000
C291        C  0.97365384  0.26187712  0.46187523    -0.50900
C292        C  0.00930102  0.28376851  0.45487991     0.13100
C293        C  0.01327267  0.20300314  0.48401502    -0.50400
C294        C  0.04937484  0.22177655  0.47991356     0.13700
H295        H  0.97524802  0.26356298  0.56143030     0.18200
H296        H  0.07502664  0.28587482  0.47598820     0.03900
H297        H  0.94425953  0.27023162  0.44809224     0.18500
H298        H  0.01088744  0.16932538  0.48461293     0.18300
N299        N  0.92010065  0.09445154  0.54660498     0.00100
C300        C  0.89267014  0.08069473  0.57561280     0.02700
C301        C  0.88447453  0.11121297  0.60418786    -0.20200
C302        C  0.90390006  0.14601964  0.59078203    -0.20400
C303        C  0.92421563  0.13569476  0.55494175     0.02600
H304        H  0.86081224  0.11055358  0.62765101     0.16400
H305        H  0.89933731  0.17679359  0.60286246     0.16400
N306        N  0.09769430  0.93351388  0.44877521     0.00100
C307        C  0.08937344  0.89307527  0.43925461     0.02700
C308        C  0.10322441  0.88339747  0.40008297    -0.20200
C309        C  0.12373339  0.91703578  0.38560550    -0.20400
C310        C  0.12227119  0.94621254  0.41655690     0.02600
H311        H  0.10361395  0.85307981  0.38610931     0.16400
H312        H  0.14389359  0.91714899  0.35895897     0.16400
N313        N  0.41430845  0.96912709  0.56799899     0.00100
C314        C  0.38807275  0.94173508  0.54969088     0.02700
C315        C  0.38080608  0.90895943  0.57644381    -0.20200
C316        C  0.39828986  0.91864737  0.61399111    -0.20400
C317        C  0.41687716  0.95630929  0.60860001     0.02600
H318        H  0.35783784  0.88524660  0.57221499     0.16400
H319        H  0.39236550  0.90319888  0.64339926     0.16400
N320        N  0.05012014  0.43113718  0.57337559     0.00100
C321        C  0.07485783  0.44521706  0.60483924     0.02700
C322        C  0.10762350  0.41907031  0.61150414    -0.15400
C323        C  0.10240556  0.38652499  0.58526170    -0.20400
C324        C  0.06652855  0.39354843  0.56327665     0.02600
H325        H  0.12949886  0.42028138  0.63709729     0.16400
H326        H  0.11968761  0.35797417  0.58657681     0.16400
N327        N  0.10326362  0.09333640  0.54592412     0.00100
C328        C  0.09704286  0.13477027  0.55080732     0.02700
C329        C  0.11115315  0.14769456  0.58909528    -0.20200
C330        C  0.12967610  0.11437407  0.60760512    -0.20400
C331        C  0.12770422  0.08250792  0.57932950     0.02600
H332        H  0.11312926  0.17923640  0.59978583     0.16400
H333        H  0.15013822  0.11616351  0.63435415     0.16400
N334        N  0.60573014  0.06485025  0.42368198     0.00100
C335        C  0.60374978  0.06675160  0.38103407     0.02700
C336        C  0.62111230  0.10243112  0.36604738    -0.20200
C337        C  0.63663563  0.12268305  0.39976691    -0.20400
C338        C  0.62946947  0.09811896  0.43433410     0.02600
H339        H  0.62584124  0.11069405  0.33362099     0.16400
H340        H  0.65777216  0.14833399  0.39800208     0.16400
N341        N  0.94924528  0.60114442  0.40358732     0.00100
C342        C  0.94148213  0.64027786  0.41766784     0.02700
C343        C  0.90306358  0.65340138  0.40508064    -0.20200
C344        C  0.88699242  0.62323194  0.38052865    -0.20400
C345        C  0.91599817  0.59242850  0.37874164     0.02600
H346        H  0.89046774  0.68412354  0.40846131     0.16400
H347        H  0.86005871  0.62649811  0.36076844     0.16400
N348        N  0.58223447  0.42396147  0.96587014     0.00100
C349        C  0.62128475  0.43181813  0.95226509     0.02700
C350        C  0.63212789  0.40514932  0.92096809    -0.20200
C351        C  0.60019189  0.37882699  0.91540723    -0.20400
C352        C  0.57058827  0.39003531  0.94343207     0.02600
H353        H  0.66208088  0.40204374  0.90709537     0.16400
H354        H  0.60070916  0.35112631  0.89673016     0.16400
N355        N  0.54046643  0.09638604  0.08761143     0.00100
C356        C  0.55213263  0.07929505  0.12504276     0.02700
C357        C  0.59029990  0.09320543  0.13711844    -0.20200
C358        C  0.60181610  0.12205926  0.10833380    -0.20400
C359        C  0.57040859  0.12478100  0.07947026     0.02600
H360        H  0.60512193  0.08796148  0.16708324     0.16400
H361        H  0.62695065  0.14349477  0.11204650     0.16400
N362        N  0.40297812  0.59700245  0.02929739     0.00100
C363        C  0.36417156  0.58204981  0.03577811     0.02700
C364        C  0.34658937  0.60039408  0.06991564    -0.20200
C365        C  0.37354192  0.62917908  0.08410504    -0.20400
C366        C  0.40703087  0.62761070  0.05841535     0.02600
H367        H  0.31516294  0.59715293  0.07993518     0.16400
H368        H  0.36679440  0.65277745  0.10676585     0.16400
N369        N  0.07159348  0.55855487  0.08363495     0.00100
C370        C  0.05696330  0.58768526  0.11024742     0.02700
C371        C  0.08780369  0.61426069  0.12224352    -0.20200
C372        C  0.12327084  0.59956542  0.10575714    -0.20400
C373        C  0.11300459  0.56502234  0.08336731     0.02600
H374        H  0.08613410  0.63721113  0.14656042     0.16400
H375        H  0.15387540  0.61008353  0.11339362     0.16400
N376        N  0.04271845  0.42934658  0.39547499     0.00100
C377        C  0.04502277  0.38732751  0.40076836     0.02700
C378        C  0.07382767  0.37037633  0.37482336    -0.20200
C379        C  0.08960083  0.40190740  0.35175630    -0.20400
C380        C  0.06994094  0.43733910  0.36409064     0.02600
H381        H  0.08074359  0.33791280  0.37117928     0.16400
H382        H  0.10970772  0.39857884  0.32530910     0.16400
N383        N  0.42037039  0.05366570  0.41567158     0.00100
C384        C  0.39114103  0.08136152  0.42783623     0.02700
C385        C  0.38188576  0.10847864  0.39560490    -0.20200
C386        C  0.40235574  0.09511700  0.36131482    -0.20400
C387        C  0.42433762  0.06084400  0.37372052     0.02600
H388        H  0.35695346  0.13059527  0.39480119     0.16400
H389        H  0.39727722  0.10583550  0.32957019     0.16400
N390        N  0.41614579  0.42528442  0.04144754     0.00100
C391        C  0.42918175  0.39609601  0.06970488     0.02700
C392        C  0.40253228  0.39304037  0.10266939    -0.20200
C393        C  0.37050707  0.41883117  0.09379586    -0.20400
C394        C  0.37864710  0.43710039  0.05580986     0.02600
H395        H  0.40281585  0.36953150  0.12691030     0.16400
H396        H  0.34164640  0.41940004  0.11016624     0.16400
C397        C  0.09140590  0.16517933  0.51766508    -0.09700
C398        C  0.08134228  0.19508842  0.49672748    -0.11200
C399        C  0.94626627  0.20064339  0.50968087    -0.09700
C400        C  0.93499504  0.16858836  0.52598528    -0.11200
C401        C  0.03443248  0.32176920  0.54132969    -0.09700
C402        C  0.04405474  0.35730755  0.54909211    -0.11200
C403        C  0.00952446  0.32579373  0.43800865    -0.09700
C404        C  0.01963440  0.35958256  0.42493014    -0.11200
C405        C  0.16662385  0.06194239  0.57307088    -0.09700
C406        C  0.19997665  0.05105583  0.56077399    -0.11200
C407        C  0.15960657  0.96961989  0.42304002    -0.09700
C408        C  0.19234238  0.98463274  0.43279083    -0.11200
C409        C  0.31756659  0.96548870  0.51597855    -0.09700
C410        C  0.35216878  0.95562589  0.52635286    -0.11200
C411        C  0.32229078  0.06207867  0.46612282    -0.09700
C412        C  0.35658452  0.07004522  0.45385414    -0.11200
C413        C  0.51253593  0.05763519  0.19280000    -0.09700
C414        C  0.52464410  0.06637421  0.15803493    -0.11200
C415        C  0.53956336  0.95016725  0.14976794    -0.09700
C416        C  0.53024818  0.95795002  0.18555196    -0.11200
C417        C  0.43572166  0.03093322  0.34243797    -0.09700
C418        C  0.44804645  0.01118094  0.31299378    -0.11200
C419        C  0.59409821  0.03399096  0.35220293    -0.09700
C420        C  0.58341640  0.01620854  0.32076682    -0.11200
C421        C  0.54938470  0.19806716  0.04872891    -0.09700
C422        C  0.56172757  0.16490911  0.06129810    -0.11200
C423        C  0.43329256  0.20225982  0.96176930    -0.09700
C424        C  0.42248189  0.16940074  0.94766312    -0.11200
C425        C  0.52808540  0.32468158  0.96595864    -0.09700
C426        C  0.54281278  0.35806930  0.95746430    -0.11200
C427        C  0.46086540  0.32339467  0.05127232    -0.09700
C428        C  0.45056947  0.35868692  0.05819967    -0.11200
C429        C  0.02747740  0.57815272  0.14218145    -0.09700
C430        C  0.01362996  0.57010349  0.17619850    -0.11200
C431        C  0.96707119  0.46992325  0.18556089    -0.09700
C432        C  0.95675933  0.45973859  0.15064010    -0.11200
C433        C  0.05492405  0.49037174  0.30366483    -0.09700
C434        C  0.06557344  0.46989191  0.33352724    -0.11200
C435        C  0.91920144  0.57021684  0.33997172    -0.09700
C436        C  0.92853148  0.55738572  0.30595576    -0.11200
C437        C  0.17674983  0.51905538  0.06394504    -0.09700
C438        C  0.14487311  0.53568395  0.07350285    -0.11200
C439        C  0.18248783  0.50229440  0.92751559    -0.09700
C440        C  0.15281134  0.52214440  0.91549274    -0.11200
C441        C  0.30288462  0.55311796  0.99147527    -0.09700
C442        C  0.33616618  0.56400424  0.00523699    -0.11200
C443        C  0.34389912  0.44956198  0.03002398    -0.09700
C444        C  0.30911560  0.45591804  0.01764304    -0.11200
C445        C  0.07155532  0.82525010  0.48173855    -0.09700
C446        C  0.08258899  0.85878023  0.46819238    -0.11200
C447        C  0.93343093  0.83454408  0.48436182    -0.09700
C448        C  0.92305072  0.86747014  0.46910907    -0.11200
C449        C  0.98425443  0.70678288  0.43537155    -0.09700
C450        C  0.97127073  0.67225879  0.42788820    -0.11200
C451        C  0.99519492  0.70017488  0.54146533    -0.09700
C452        C  0.98288945  0.66616190  0.55188433    -0.11200
C453        C  0.82353420  0.04261149  0.55753537    -0.09700
C454        C  0.85804871  0.05459884  0.56511826    -0.11200
C455        C  0.84886670  0.98472412  0.44691849    -0.09700
C456        C  0.81509145  0.99570256  0.45805003    -0.11200
C457        C  0.66433797  0.09413420  0.46231507    -0.09700
C458        C  0.69617820  0.08373545  0.47915004    -0.11200
C459        C  0.69588051  0.95524473  0.54493120    -0.09700
C460        C  0.66237229  0.94505536  0.55746160    -0.11200
C461        C  0.46388925  0.07981649  0.84386017    -0.09700
C462        C  0.47761363  0.07223599  0.80965748    -0.11200
C463        C  0.46549852  0.95607960  0.83887983    -0.09700
C464        C  0.47719214  0.96634557  0.80434342    -0.11200
C465        C  0.42713352  0.00354756  0.67514393    -0.09700
C466        C  0.42045227  0.98362136  0.64396342    -0.11200
C467        C  0.56270800  0.02072725  0.68850866    -0.09700
C468        C  0.57860443  0.00512583  0.65828437    -0.11200
C469        C  0.05493697  0.58393445  0.83496083    -0.09700
C470        C  0.04353180  0.57365527  0.80047633    -0.11200
C471        C  0.95558847  0.43829800  0.83410156    -0.09700
C472        C  0.97131083  0.44958530  0.80186094    -0.11200
C473        C  0.05124044  0.48123665  0.67450342    -0.09700
C474        C  0.06046150  0.46882386  0.64014673    -0.11200
C475        C  0.95864765  0.53953224  0.67696496    -0.09700
C476        C  0.95062790  0.55374953  0.64262667    -0.11200
C477        C  0.53512607  0.82178846  0.03077973    -0.09700
C478        C  0.54585795  0.85599142  0.04158146    -0.11200
C479        C  0.44421405  0.85988522  0.94534007    -0.09700
C480        C  0.45369106  0.82501037  0.95599654    -0.11200
C481        C  0.44499939  0.69820859  0.04194163    -0.09700
C482        C  0.42934366  0.66564661  0.05166096    -0.11200
C483        C  0.54260111  0.70028034  0.93619695    -0.09700
C484        C  0.55556846  0.66662004  0.92651996    -0.11200
C485        C  0.81146083  0.50747810  0.06517530    -0.09700
C486        C  0.84450966  0.49266624  0.07527202    -0.11200
C487        C  0.81580708  0.50630611  0.92402304    -0.09700
C488        C  0.84631406  0.48892650  0.91151043    -0.11200
C489        C  0.68959360  0.46245937  0.98314461    -0.09700
C490        C  0.65461019  0.45205139  0.97458086    -0.11200
C491        C  0.65196410  0.57353688  0.97453703    -0.09700
C492        C  0.68617094  0.56630543  0.98829342    -0.11200
loop_ 
_geom_bond_atom_site_label_1 
_geom_bond_atom_site_label_2 
_geom_bond_distance 
_geom_bond_site_symmetry_2 
_ccdc_geom_bond_type 
C1            C2   1.549       .  S
C1            C7   1.502   1_554  S
C1            C5   1.556       .  S
C1          C485   1.477       .  S
C2            H9   1.085       .  S
C2            C3   1.387   1_554  D
C3            C4   1.549       .  S
C3          C492   1.462       .  S
C4            C8   1.559       .  S
C4            C6   1.532       .  S
C4           H10   1.112       .  S
C5           H11   1.086       .  S
C5            C6   1.375   1_554  D
C6          C489   1.469       .  S
C7           H12   1.094       .  S
C7            C8   1.328       .  D
C8          C487   1.448       .  S
C13          C14   1.546       .  S
C13          C19   1.497       .  S
C13          C17   1.545       .  S
C13         C483   1.471       .  S
C14          H21   1.086       .  S
C14          C15   1.380       .  D
C15          C16   1.541   1_556  S
C15         C480   1.460       .  S
C16          C20   1.560       .  S
C16          C18   1.542       .  S
C16          H22   1.111       .  S
C17          H23   1.086       .  S
C17          C18   1.377   1_556  D
C18         C477   1.459       .  S
C19          H24   1.092       .  S
C19          C20   1.333   1_556  D
C20         C481   1.443       .  S
C25          C26   1.549       .  S
C25          C31   1.499       .  S
C25          C29   1.541   1_455  S
C25         C470   1.470       .  S
C26          H33   1.086       .  S
C26          C27   1.380       .  D
C27          C28   1.541   1_455  S
C27         C473   1.458       .  S
C28          C32   1.559       .  S
C28          C30   1.542       .  S
C28          H34   1.111       .  S
C29          H35   1.086       .  S
C29          C30   1.377       .  D
C30         C475   1.459       .  S
C31          H36   1.092       .  S
C31          C32   1.333   1_455  D
C32         C472   1.441       .  S
C37          C38   1.543       .  S
C37          C43   1.503       .  S
C37          C41   1.559   1_545  S
C37         C467   1.474       .  S
C38          H45   1.085       .  S
C38          C39   1.383       .  D
C39          C40   1.550       .  S
C39         C462   1.457       .  S
C40          C44   1.554       .  S
C40          C42   1.524   1_545  S
C40          H46   1.112       .  S
C41          H47   1.086       .  S
C41          C42   1.374       .  D
C42         C464   1.462       .  S
C43          H48   1.094       .  S
C43          C44   1.336       .  D
C44         C465   1.444       .  S
C49          C50   1.545       .  S
C49          C55   1.499   1_565  S
C49          C53   1.549   1_565  S
C49         C459   1.473       .  S
C50          H57   1.086       .  S
C50          C51   1.378   1_565  D
C51          C52   1.538       .  S
C51         C456   1.459   1_545  S
C52          C56   1.557       .  S
C52          C54   1.543       .  S
C52          H58   1.111       .  S
C53          H59   1.086   1_545  S
C53          C54   1.380       .  D
C54         C453   1.459       .  S
C55          H60   1.093       .  S
C55          C56   1.333       .  D
C56         C458   1.441       .  S
C61          C62   1.550       .  S
C61          C67   1.501       .  S
C61          C65   1.560       .  S
C61         C445   1.484       .  S
C62          H69   1.085       .  S
C62          C63   1.388   1_455  D
C63          C64   1.549       .  S
C63         C451   1.464       .  S
C64          C68   1.557       .  S
C64          C66   1.530       .  S
C64          H70   1.112       .  S
C65          H71   1.086       .  S
C65          C66   1.378   1_455  D
C66         C449   1.470       .  S
C67          H72   1.094       .  S
C67          C68   1.329   1_455  D
C68         C447   1.447       .  S
C73          C74   1.536       .  S
C73          C79   1.494   1_554  S
C73          C77   1.557       .  S
C73         C437   1.471       .  S
C74          H81   1.086       .  S
C74          C75   1.384       .  D
C75          C76   1.558   1_554  S
C75         C444   1.460       .  S
C76          C80   1.575       .  S
C76          C78   1.532       .  S
C76          H82   1.111       .  S
C77          H83   1.087       .  S
C77          C78   1.375   1_554  D
C78         C441   1.473       .  S
C79          H84   1.095       .  S
C79          C80   1.337       .  D
C80         C439   1.453       .  S
O85         Cu93   2.072   1_454  S
O85          C95   1.288       .  A
O86         Cu93   2.087       .  S
O86          C96   1.284       .  A
O87         Cu93   2.081   1_554  S
O87          C97   1.283       .  A
O88         Cu93   2.097   1_455  S
O88          C98   1.291       .  A
O89         Cu94   2.086       .  S
O89          C98   1.284       .  A
O90         Cu94   2.085   1_654  S
O90          C97   1.290       .  A
O91         Cu94   2.098   1_655  S
O91          C96   1.290       .  A
O92         Cu94   2.073   1_554  S
O92          C95   1.282       .  A
Cu93        Cu94   2.356   1_655  S
C95         N369   1.466       .  S
C96          N99   1.477       .  S
C97         N118   1.473       .  S
C98         N125   1.478       .  S
N99         C103   1.374       .  A
N99         C100   1.373       .  A
C100        C101   1.375       .  A
C100        C488   1.449       .  S
C101        C102   1.362       .  A
C101        H104   1.083       .  S
C102        C103   1.380       .  A
C102        H105   1.084       .  S
C103        C471   1.446       .  S
C106        C107   1.544       .  S
C106        C112   1.504       .  S
C106        C110   1.547       .  S
C106        C436   1.468       .  S
C107        H114   1.086       .  S
C107        C108   1.375   1_655  D
C108        C109   1.542       .  S
C108        C430   1.450       .  S
C109        C113   1.552       .  S
C109        C111   1.534   1_455  S
C109        H115   1.112       .  S
C110        H116   1.086       .  S
C110        C111   1.379       .  D
C111        C431   1.456       .  S
C112        H117   1.092       .  S
C112        C113   1.335   1_655  D
C113        C433   1.437       .  S
N118        C122   1.371       .  A
N118        C119   1.368       .  A
C119        C120   1.380       .  A
C119        C432   1.450       .  S
C120        C121   1.363       .  A
C120        H123   1.083       .  S
C121        C122   1.376       .  A
C121        H124   1.083       .  S
C122        C486   1.456       .  S
N125        C129   1.372       .  A
N125        C126   1.373       .  A
C126        C127   1.375       .  A
C126        C440   1.454       .  S
C127        C128   1.362       .  A
C127        H130   1.083       .  S
C128        C129   1.379       .  A
C128        H131   1.083       .  S
C129        C469   1.446       .  S
O132       Cu140   2.071       .  S
O132        C142   1.282   1_556  A
O133       Cu140   2.063       .  S
O133        C143   1.286       .  A
O134       Cu140   2.065       .  S
O134        C144   1.282   1_556  A
O135       Cu140   2.086       .  S
O135        C145   1.289       .  A
O136       Cu141   2.064       .  S
O136        C145   1.281   1_554  A
O137       Cu141   2.055       .  S
O137        C144   1.285       .  A
O138       Cu141   2.077       .  S
O138        C143   1.283   1_554  A
O139       Cu141   2.090       .  S
O139        C142   1.290       .  A
Cu140      Cu141   2.359   1_556  S
C142        N362   1.470       .  S
C143        N348   1.464       .  S
C144        N390   1.459       .  S
C145        N146   1.467       .  S
N146        C150   1.370       .  A
N146        C147   1.369       .  A
C147        C148   1.378       .  A
C147        C491   1.455       .  S
C148        C149   1.363       .  A
C148        H151   1.084       .  S
C149        C150   1.377       .  A
C149        H152   1.083       .  S
C150        C484   1.448       .  S
C153        C154   1.543   1_556  S
C153        C159   1.498   1_556  S
C153        C157   1.549       .  S
C153        C423   1.470       .  S
C154        H161   1.086       .  S
C154        C155   1.379       .  D
C155        C156   1.541       .  S
C155        C427   1.457       .  S
C156        C160   1.556       .  S
C156        C158   1.538   1_554  S
C156        H162   1.111       .  S
C157        H163   1.086       .  S
C157        C158   1.379       .  D
C158        C425   1.458       .  S
C159        H164   1.092       .  S
C159        C160   1.334       .  D
C160        C421   1.440       .  S
O165       Cu173   2.073       .  S
O165        C175   1.284       .  A
O166       Cu173   2.073   1_566  S
O166        C176   1.288       .  A
O167       Cu173   2.049   1_565  S
O167        C177   1.279       .  A
O168       Cu173   2.070   1_556  S
O168        C178   1.286       .  A
O169       Cu174   2.071       .  S
O169        C178   1.283       .  A
O170       Cu174   2.066   1_564  S
O170        C177   1.287       .  A
O171       Cu174   2.054   1_565  S
O171        C176   1.279       .  A
O172       Cu174   2.065   1_554  S
O172        C175   1.286       .  A
Cu173      Cu174   2.361   1_554  S
C175        N355   1.465       .  S
C176        N179   1.461       .  S
C177        N198   1.457       .  S
C178        N205   1.465       .  S
N179        C183   1.368       .  A
N179        C180   1.368       .  A
C180        C181   1.379       .  A
C180        C479   1.453       .  S
C181        C182   1.365       .  A
C181        H184   1.083       .  S
C182        C183   1.377       .  A
C182        H185   1.083       .  S
C183        C463   1.455       .  S
C186        C187   1.538   1_545  S
C186        C192   1.497   1_545  S
C186        C190   1.556       .  S
C186        C420   1.471       .  S
C187        H194   1.086       .  S
C187        C188   1.384       .  D
C188        C189   1.557       .  S
C188        C416   1.463       .  S
C189        C193   1.568       .  S
C189        C191   1.527   1_565  S
C189        H195   1.111       .  S
C190        H196   1.087       .  S
C190        C191   1.373       .  D
C191        C413   1.463       .  S
C192        H197   1.094       .  S
C192        C193   1.338       .  D
C193        C418   1.448   1_565  S
N198        C202   1.367       .  A
N198        C199   1.366       .  A
C199        C200   1.378       .  A
C199        C478   1.452       .  S
C200        C201   1.365       .  A
C200        H203   1.083       .  S
C201        C202   1.378       .  A
C201        H204   1.083       .  S
C202        C415   1.454       .  S
N205        C209   1.371       .  A
N205        C206   1.366       .  A
C206        C207   1.377       .  A
C206        C461   1.450       .  S
C207        C208   1.364       .  A
C207        H210   1.083       .  S
C208        C209   1.378       .  A
C208        H211   1.083       .  S
C209        C424   1.447       .  S
O212       Cu220   2.073       .  S
O212        C222   1.286       .  A
O213       Cu220   2.053       .  S
O213        C223   1.279   1_455  A
O214       Cu220   2.074       .  S
O214        C224   1.288       .  A
O215       Cu220   2.077       .  S
O215        C225   1.283   1_455  A
O216       Cu221   2.076       .  S
O216        C225   1.288       .  A
O217       Cu221   2.056       .  S
O217        C224   1.279   1_655  A
O218       Cu221   2.067       .  S
O218        C223   1.287       .  A
O219       Cu221   2.076       .  S
O219        C222   1.284   1_655  A
Cu220      Cu221   2.360   1_455  S
C222        N376   1.467       .  S
C223        N226   1.459       .  S
C224        N320   1.461       .  S
C225        N341   1.469       .  S
N226        C230   1.368       .  A
N226        C227   1.371       .  A
C227        C228   1.377       .  A
C227        C452   1.456       .  S
C228        C229   1.365       .  A
C228        H231   1.083       .  S
C229        C230   1.379       .  A
C229        H232   1.083       .  S
C230        C476   1.451       .  S
O233       Cu241   2.091       .  S
O233        C243   1.289       .  A
O234       Cu241   2.069       .  S
O234        C244   1.282   1_545  A
O235       Cu241   2.086       .  S
O235        C245   1.284   1_545  A
O236       Cu241   2.080       .  S
O236        C246   1.289       .  A
O237       Cu242   2.076   1_545  S
O237        C246   1.283       .  A
O238       Cu242   2.095       .  S
O238        C245   1.290       .  A
O239       Cu242   2.073       .  S
O239        C244   1.287       .  A
O240       Cu242   2.079   1_545  S
O240        C243   1.284       .  A
Cu241      Cu242   2.356   1_545  S
C243        N334   1.474       .  S
C244        N313   1.466       .  S
C245        N247   1.477       .  S
C246        N383   1.470       .  S
N247        C251   1.375       .  A
N247        C248   1.373       .  A
C248        C249   1.374       .  A
C248        C468   1.449   1_565  S
C249        C250   1.362       .  A
C249        H252   1.083       .  S
C250        C251   1.380       .  A
C250        H253   1.083       .  S
C251        C460   1.449       .  S
C254        C255   1.545   1_545  S
C254        C260   1.499       .  S
C254        C258   1.548       .  S
C254        C406   1.473       .  S
C255        H262   1.086       .  S
C255        C256   1.378       .  D
C256        C257   1.539   1_565  S
C256        C409   1.460       .  S
C257        C261   1.561       .  S
C257        C259   1.547       .  S
C257        H263   1.111   1_545  S
C258        H264   1.086       .  S
C258        C259   1.380       .  D
C259        C411   1.462       .  S
C260        H265   1.093       .  S
C260        C261   1.332       .  D
C261        C408   1.445   1_545  S
O266       Cu274   2.076   1_655  S
O266        C276   1.282       .  A
O267       Cu274   2.092   1_545  S
O267        C277   1.289       .  A
O268       Cu274   2.088   1_645  S
O268        C278   1.290       .  A
O269       Cu274   2.095       .  S
O269        C279   1.285       .  A
O270       Cu275   2.091   1_565  S
O270        C279   1.290       .  A
O271       Cu275   2.073   1_655  S
O271        C278   1.282       .  A
O272       Cu275   2.082       .  S
O272        C277   1.284       .  A
O273       Cu275   2.081   1_665  S
O273        C276   1.289       .  A
Cu274      Cu275   2.356   1_565  S
C276        N280   1.470       .  S
C277        N327   1.475       .  S
C278        N299   1.470       .  S
C279        N306   1.479       .  S
N280        C284   1.369       .  A
N280        C281   1.368       .  A
C281        C282   1.381       .  A
C281        C455   1.452       .  S
C282        C283   1.364       .  A
C282        H285   1.083       .  S
C283        C284   1.375       .  A
C283        H286   1.083       .  S
C284        C448   1.452       .  S
C287        C288   1.561       .  S
C287        C293   1.502   1_655  S
C287        C291   1.543       .  S
C287        C399   1.477       .  S
C288        H295   1.086       .  S
C288        C289   1.376   1_655  D
C289        C290   1.525       .  S
C289        C401   1.469       .  S
C290        C294   1.562       .  S
C290        C292   1.554       .  S
C290        H296   1.112       .  S
C291        H297   1.085       .  S
C291        C292   1.384   1_655  D
C292        C403   1.461       .  S
C293        H298   1.094       .  S
C293        C294   1.335       .  D
C294        C398   1.451       .  S
N299        C303   1.372       .  A
N299        C300   1.370       .  A
C300        C301   1.381       .  A
C300        C454   1.452       .  S
C301        C302   1.364       .  A
C301        H304   1.083       .  S
C302        C303   1.375       .  A
C302        H305   1.083       .  S
C303        C400   1.454       .  S
N306        C310   1.375       .  A
N306        C307   1.375       .  A
C307        C308   1.377       .  A
C307        C446   1.460       .  S
C308        C309   1.361       .  A
C308        H311   1.083       .  S
C309        C310   1.377       .  A
C309        H312   1.083       .  S
C310        C407   1.452       .  S
N313        C317   1.364       .  A
N313        C314   1.367       .  A
C314        C315   1.382       .  A
C314        C410   1.453       .  S
C315        C316   1.366       .  A
C315        H318   1.084       .  S
C316        C317   1.375       .  A
C316        H319   1.083       .  S
C317        C466   1.448       .  S
N320        C324   1.372       .  A
N320        C321   1.368       .  A
C321        C322   1.377       .  A
C321        C474   1.452       .  S
C322        C323   1.364       .  A
C322        H325   1.083       .  S
C323        C324   1.379       .  A
C323        H326   1.083       .  S
C324        C402   1.460       .  S
N327        C331   1.372       .  A
N327        C328   1.368       .  A
C328        C329   1.375       .  A
C328        C397   1.453       .  S
C329        C330   1.365       .  A
C329        H332   1.083       .  S
C330        C331   1.381       .  A
C330        H333   1.084       .  S
C331        C405   1.450       .  S
N334        C338   1.373       .  A
N334        C335   1.368       .  A
C335        C336   1.374       .  A
C335        C419   1.447       .  S
C336        C337   1.363       .  A
C336        H339   1.083       .  S
C337        C338   1.381       .  A
C337        H340   1.083       .  S
C338        C457   1.447       .  S
N341        C345   1.371       .  A
N341        C342   1.374       .  A
C342        C343   1.379       .  A
C342        C450   1.460       .  S
C343        C344   1.363       .  A
C343        H346   1.083       .  S
C344        C345   1.376       .  A
C344        H347   1.083       .  S
C345        C435   1.446       .  S
N348        C352   1.371       .  A
N348        C349   1.375       .  A
C349        C350   1.378       .  A
C349        C490   1.457       .  S
C350        C351   1.360       .  A
C350        H353   1.083       .  S
C351        C352   1.376       .  A
C351        H354   1.083       .  S
C352        C426   1.450       .  S
N355        C359   1.370       .  A
N355        C356   1.367       .  A
C356        C357   1.379       .  A
C356        C414   1.453       .  S
C357        C358   1.364       .  A
C357        H360   1.083       .  S
C358        C359   1.376       .  A
C358        H361   1.083       .  S
C359        C422   1.447       .  S
N362        C366   1.373       .  A
N362        C363   1.375       .  A
C363        C364   1.379       .  A
C363        C442   1.460       .  S
C364        C365   1.362       .  A
C364        H367   1.083       .  S
C365        C366   1.376       .  A
C365        H368   1.083       .  S
C366        C482   1.449       .  S
N369        C373   1.369       .  A
N369        C370   1.366       .  A
C370        C371   1.381       .  A
C370        C429   1.444       .  S
C371        C372   1.364       .  A
C371        H374   1.083       .  S
C372        C373   1.375       .  A
C372        H375   1.083       .  S
C373        C438   1.447       .  S
N376        C380   1.372       .  A
N376        C377   1.373       .  A
C377        C378   1.377       .  A
C377        C404   1.449       .  S
C378        C379   1.361       .  A
C378        H381   1.083       .  S
C379        C380   1.377       .  A
C379        H382   1.083       .  S
C380        C434   1.439       .  S
N383        C387   1.370       .  A
N383        C384   1.370       .  A
C384        C385   1.381       .  A
C384        C412   1.455       .  S
C385        C386   1.365       .  A
C385        H388   1.083       .  S
C386        C387   1.375       .  A
C386        H389   1.083       .  S
C387        C417   1.451       .  S
N390        C394   1.367       .  A
N390        C391   1.368       .  A
C391        C392   1.378       .  A
C391        C428   1.450       .  S
C392        C393   1.363       .  A
C392        H395   1.083       .  S
C393        C394   1.377       .  A
C393        H396   1.083       .  S
C394        C443   1.452       .  S
C397        C398   1.217       .  T
C399        C400   1.218       .  T
C401        C402   1.222       .  T
C403        C404   1.217       .  T
C405        C406   1.214       .  T
C407        C408   1.215       .  T
C409        C410   1.216       .  T
C411        C412   1.218       .  T
C413        C414   1.217       .  T
C415        C416   1.217       .  T
C417        C418   1.216       .  T
C419        C420   1.213       .  T
C421        C422   1.211       .  T
C423        C424   1.212       .  T
C425        C426   1.215       .  T
C427        C428   1.214       .  T
C429        C430   1.211       .  T
C431        C432   1.214       .  T
C433        C434   1.208       .  T
C435        C436   1.211       .  T
C437        C438   1.214       .  T
C439        C440   1.219       .  T
C441        C442   1.223   1_556  T
C443        C444   1.216       .  T
C445        C446   1.223       .  T
C447        C448   1.216       .  T
C449        C450   1.222       .  T
C451        C452   1.219       .  T
C453        C454   1.216       .  T
C455        C456   1.216       .  T
C457        C458   1.212       .  T
C459        C460   1.215       .  T
C461        C462   1.215       .  T
C463        C464   1.218       .  T
C465        C466   1.213   1_545  T
C467        C468   1.216       .  T
C469        C470   1.212       .  T
C471        C472   1.212       .  T
C473        C474   1.216       .  T
C475        C476   1.215       .  T
C477        C478   1.216       .  T
C479        C480   1.216       .  T
C481        C482   1.213       .  T
C483        C484   1.213       .  T
C485        C486   1.220       .  T
C487        C488   1.216       .  T
C489        C490   1.221       .  T
C491        C492   1.218       .  T
