geometry optimzed in LAMMPS
_audit_creation_date              2020-11-30 
_audit_creation_method            'lammps2cif' 
_symmetry_space_group_name_H-M    'P1' 
_symmetry_Int_Tables_number       1 
_symmetry_cell_setting            triclinic 
loop_ 
_symmetry_equiv_pos_as_xyz 
  x,y,z 
_cell_length_a                    41.70127268 
_cell_length_b                    33.910387849981824 
_cell_length_c                    38.76186082724825 
_cell_angle_alpha                 89.98781242442 
_cell_angle_beta                  104.95063420224078 
_cell_angle_gamma                 91.69709374875322 
loop_ 
_atom_site_label 
_atom_site_type_symbol 
_atom_site_fract_x 
_atom_site_fract_y 
_atom_site_fract_z 
_atom_site_charge 
C1          C  0.28590096  0.68189406  0.38510665     0.86600
C2          C  0.25268463  0.65899630  0.37912452    -0.53700
C3          C  0.22553654  0.68216966  0.37250890     0.09500
C4          C  0.23418194  0.72669059  0.37230785     0.20400
C5          C  0.28158666  0.70777233  0.35135316    -0.54400
C6          C  0.25463476  0.73124591  0.34459169     0.09600
C7          C  0.28619652  0.71207166  0.41496623    -0.53900
C8          C  0.25922059  0.73543123  0.40832648     0.10200
H9          H  0.25073933  0.62699925  0.37906983     0.14700
H10         H  0.21249975  0.74582995  0.36759066     0.00400
H11         H  0.29850284  0.70931174  0.33459070     0.15000
H12         H  0.30654720  0.71557822  0.43881808     0.14800
In13       In  0.47473416  0.42963383  0.20192947     1.36900
C14         C  0.49597832  0.49586264  0.23985822     0.77700
O15         O  0.46530781  0.39806940  0.24938691    -0.60800
O16         O  0.99678369  0.37105541  0.22237587    -0.51700
C17         C  0.41146904  0.40969931  0.17438988     0.70300
O18         O  0.42023630  0.43859344  0.19572203    -0.46600
C19         C  0.49805834  0.43364195  0.14358652     0.75000
O20         O  0.46813359  0.49270844  0.21734439    -0.58400
O21         O  0.01581442  0.42359603  0.17367437    -0.48500
O22         O  0.01346526  0.46596571  0.24180690    -0.54800
C23         C  0.48204868  0.36846212  0.24696507     0.85200
O24         O  0.43500390  0.39245732  0.16648118    -0.56700
O25         O  0.46935952  0.44383254  0.14387228    -0.60000
In26       In  0.02666815  0.59611582  0.30259020     1.36900
C27         C  0.00681343  0.53134964  0.26230486     0.77700
O28         O  0.01661990  0.56092070  0.34909196    -0.60800
O29         O  0.50635362  0.62159203  0.34605854    -0.51700
C30         C  0.09072241  0.61737102  0.32769859     0.70300
O31         O  0.08112801  0.58927099  0.30570371    -0.46600
C32         C  0.00906797  0.65396241  0.25527983     0.75000
O33         O  0.03513262  0.53502837  0.28396965    -0.58400
O34         O  0.48897993  0.63885144  0.27153766    -0.48500
O35         O  0.48853242  0.56031804  0.26182119    -0.54800
C36         C  0.00718768  0.59023219  0.36344365     0.85200
O37         O  0.06763897  0.63283693  0.33791820    -0.56700
O38         O  0.03706795  0.63857540  0.26277746    -0.60000
In39       In  0.47667419  0.58895377  0.45732232     1.36900
C40         C  0.49919900  0.52369587  0.49282859     0.77700
O41         O  0.48877959  0.55730218  0.41064620    -0.60800
O42         O  0.99834321  0.61917048  0.41642758    -0.51700
C43         C  0.41220383  0.60351482  0.42974688     0.70300
O44         O  0.42200792  0.58330794  0.45755568    -0.46600
C45         C  0.49266564  0.64738108  0.50565883     0.75000
O46         O  0.46998110  0.52625641  0.47332825    -0.58400
O47         O  0.00648925  0.64426634  0.48055078    -0.48500
O48         O  0.01766310  0.55411453  0.49304118    -0.54800
C49         C  0.49810241  0.58856697  0.39782466     0.85200
O50         O  0.43500137  0.61406677  0.41577324    -0.56700
O51         O  0.47222676  0.61980183  0.50702120    -0.60000
In52       In  0.02895841  0.42200300  0.05025064     1.36900
C53         C  0.01036757  0.48810607  0.01382622     0.77700
O54         O  0.02503296  0.39391298  0.99697960    -0.60800
O55         O  0.50219224  0.36364354  0.03241817    -0.51700
C56         C  0.09091309  0.39741275  0.07232985     0.70300
O57         O  0.08419459  0.42941884  0.05554434    -0.46600
C58         C  0.50896247  0.43145122  0.11037302     0.75000
O59         O  0.03962973  0.48398244  0.03285384    -0.58400
O60         O  0.48929136  0.42280170  0.08058969    -0.48500
O61         O  0.49093165  0.45933156  0.01433954    -0.54800
C62         C  0.00890522  0.36363509  0.00245728     0.85200
O63         O  0.06601114  0.37883786  0.07767048    -0.56700
O64         O  0.03866331  0.43647579  0.10936892    -0.60000
C65         C  0.28172006  0.32968681  0.13408120     0.86600
C66         C  0.28054823  0.30077957  0.16428681    -0.53700
C67         C  0.25218861  0.27780454  0.15844906     0.09500
C68         C  0.22671396  0.28684293  0.12306251     0.20400
C69         C  0.27491135  0.30235116  0.10077742    -0.54400
C70         C  0.24608401  0.28012242  0.09481928     0.09600
C71         C  0.25042719  0.35384882  0.12863600    -0.53900
C72         C  0.22158679  0.33182558  0.12282904     0.10200
H73         H  0.30162744  0.29647411  0.18700370     0.14700
H74         H  0.20330316  0.26884119  0.11837955     0.00400
H75         H  0.29262722  0.29676582  0.08565638     0.15000
H76         H  0.25096123  0.38587412  0.12804438     0.14800
In77       In  0.21167591  0.08650969  0.45092208     1.36900
C78         C  0.23545301  0.02374900  0.48914034     0.77700
O79         O  0.22508774  0.05333716  0.40599628    -0.60800
O80         O  0.23390647  0.11538825  0.41000465    -0.51700
C81         C  0.14779724  0.09979110  0.42138803     0.70300
O82         O  0.15699898  0.07795976  0.44825105    -0.46600
C83         C  0.22499232  0.14552027  0.49859519     0.75000
O84         O  0.20615310  0.02450379  0.46950243    -0.58400
O85         O  0.24093907  0.14125723  0.47531796    -0.48500
O86         O  0.25297050  0.05455636  0.48827982    -0.54800
C87         C  0.23461130  0.08411548  0.39264000     0.85200
O88         O  0.17099343  0.11225217  0.40877979    -0.56700
O89         O  0.20311134  0.11904124  0.49799625    -0.60000
In90       In  0.27128223  0.92610127  0.04862573     1.36900
C91         C  0.24800952  0.98944744  0.01131159     0.77700
O92         O  0.25256709  0.89799227  0.99466905    -0.60800
O93         O  0.26259968  0.86017528  0.03913233    -0.51700
C94         C  0.33677939  0.91761443  0.06815755     0.70300
O95         O  0.32060227  0.92010815  0.03610780    -0.46600
C96         C  0.24810758  0.92645381  0.10660143     0.75000
O97         O  0.27804038  0.98723610  0.02870510    -0.58400
O98         O  0.25686020  0.95771693  0.09351016    -0.48500
O99         O  0.22969754  0.95989344  0.01411240    -0.54800
C100        C  0.25461864  0.86297475  0.00560368     0.85200
O101        O  0.32004295  0.92422117  0.09012590    -0.56700
O102        O  0.24924881  0.89560152  0.08890009    -0.60000
C103        C  0.02313905  0.18079611  0.38091875     0.86600
C104        C  0.49006995  0.15741609  0.37134626    -0.53700
C105        C  0.46273963  0.18009848  0.36519410     0.09500
C106        C  0.47115985  0.22477726  0.36840603     0.20400
C107        C  0.02076097  0.21037226  0.34999206    -0.54400
C108        C  0.49320238  0.23293660  0.34235953     0.09600
C109        C  0.02184372  0.20772227  0.41238473    -0.53900
C110        C  0.49477815  0.23070365  0.40611150     0.10200
H111        H  0.48847072  0.12541371  0.36977333     0.14700
H112        H  0.44887711  0.24274744  0.36347949     0.00400
H113        H  0.04106520  0.21641670  0.33812765     0.15000
H114        H  0.04201647  0.21060273  0.43647078     0.14800
In115      In  0.26652714  0.08704168  0.29957452     1.36900
C116        C  0.24640173  0.02120958  0.26202053     0.77700
O117        O  0.25550570  0.05432569  0.34665652    -0.60800
O118        O  0.24421189  0.11478435  0.34044674    -0.51700
C119        C  0.33007020  0.10894038  0.32534471     0.70300
O120        O  0.32129299  0.07805702  0.30677271    -0.46600
C121        C  0.25293855  0.14133268  0.24839905     0.75000
O122        O  0.27485201  0.02547680  0.28327730    -0.58400
O123        O  0.23373744  0.13444982  0.26832370    -0.48500
O124        O  0.22757623  0.04991077  0.26119611    -0.54800
C125        C  0.24500109  0.08423745  0.35909704     0.85200
O126        O  0.30644282  0.12665990  0.33245558    -0.56700
O127        O  0.27736009  0.11916182  0.25386255    -0.60000
In128      In  0.21747976  0.92087907  0.19986241     1.36900
C129        C  0.23625784  0.98576970  0.23959745     0.77700
O130        O  0.20617796  0.87923107  0.23970034    -0.60800
O131        O  0.25386358  0.87679823  0.23019325    -0.51700
C132        C  0.15394697  0.90058861  0.17322495     0.70300
O133        O  0.16324259  0.92829518  0.19566492    -0.46600
C134        C  0.23817336  0.92547758  0.14023900     0.75000
O135        O  0.20799462  0.98149864  0.21801889    -0.58400
O136        O  0.23882514  0.89434939  0.15801325    -0.48500
O137        O  0.25527169  0.95736702  0.24017118    -0.54800
C138        C  0.23351263  0.86234384  0.24624684     0.85200
O139        O  0.17713643  0.88514090  0.16327487    -0.56700
O140        O  0.22836848  0.95517775  0.15371078    -0.60000
C141        C  0.45984634  0.83382197  0.11343759     0.86600
C142        C  0.46499244  0.80587913  0.08387793    -0.53700
C143        C  0.49253764  0.78372079  0.09400070     0.09500
C144        C  0.01250888  0.79122513  0.13237991     0.20400
C145        C  0.45960449  0.80528372  0.14456539    -0.54400
C146        C  0.48751791  0.78341685  0.15513086     0.09600
C147        C  0.49229459  0.85807631  0.12539386    -0.53900
C148        C  0.01984817  0.83599959  0.13529286     0.10200
H149        H  0.44692639  0.80076806  0.05847509     0.14700
H150        H  0.03487170  0.77303307  0.13960591     0.00400
H151        H  0.43891794  0.80186091  0.15655380     0.15000
H152        H  0.49337717  0.89007261  0.12447823     0.14800
C153        C  0.07708430  0.83881062  0.12852703    -0.12200
C154        C  0.05380317  0.85357479  0.14509508     0.04800
C155        C  0.06309621  0.88521265  0.16964971    -0.07500
C156        C  0.09556761  0.90097141  0.17753497    -0.08200
C157        C  0.11912900  0.88579390  0.16135724    -0.02800
C158        C  0.10944244  0.85465908  0.13621160     0.04000
N159        N  0.13202520  0.83872191  0.11812307     0.66500
H160        H  0.07000184  0.81506932  0.10906995     0.15400
H161        H  0.10254678  0.92454825  0.19715067     0.15200
N162        N  0.04036296  0.90064923  0.18786662     0.74300
O163        O  0.14722464  0.80786051  0.12977083    -0.39200
O164        O  0.13185862  0.85080211  0.08728745    -0.39100
O165        O  0.03785056  0.88506692  0.21664367    -0.39800
O166        O  0.02875543  0.93433398  0.17977161    -0.39900
C167        C  0.37200613  0.15598086  0.36148187    -0.12200
C168        C  0.36466473  0.12484762  0.33659577     0.04800
C169        C  0.38976673  0.11210116  0.32115827    -0.07500
C170        C  0.42118759  0.13096918  0.33041088    -0.08200
C171        C  0.42850181  0.16228933  0.35527326    -0.02800
C172        C  0.40345595  0.17459587  0.37102300     0.04000
N173        N  0.40986095  0.20388738  0.39860055     0.66500
H174        H  0.35317581  0.16601847  0.37389592     0.15400
H175        H  0.43998209  0.12113473  0.31785999     0.15200
N176        N  0.38362707  0.08080039  0.29539595     0.74300
O177        O  0.40152182  0.23885312  0.39057041    -0.39200
O178        O  0.41282412  0.19271048  0.43025827    -0.39100
O179        O  0.37920770  0.08867557  0.26271655    -0.39800
O180        O  0.38812126  0.04561570  0.30568617    -0.39900
C181        C  0.38583358  0.89842892  0.11580354    -0.12200
C182        C  0.37119938  0.90375136  0.07931049     0.04800
C183        C  0.38810687  0.89098311  0.05437993    -0.07500
C184        C  0.41731176  0.87015401  0.06606124    -0.08200
C185        C  0.42996081  0.86047624  0.10232159    -0.02800
C186        C  0.41528880  0.87794484  0.12757103     0.04000
N187        N  0.42973326  0.87530511  0.16520652     0.66500
H188        H  0.37395014  0.90949190  0.13548524     0.15400
H189        H  0.42971154  0.86123015  0.04617271     0.15200
N190        N  0.37540846  0.89740371  0.01693326     0.74300
O191        O  0.45645032  0.89420860  0.17916392    -0.39200
O192        O  0.41284432  0.86069066  0.18507472    -0.39100
O193        O  0.38933791  0.92304136  0.00163982    -0.39800
O194        O  0.35513877  0.87249243  0.99829030    -0.39900
C195        C  0.09209147  0.11226618  0.43023130    -0.12200
C196        C  0.11341259  0.11293753  0.40762460     0.04800
C197        C  0.10284898  0.13064359  0.37387135    -0.07500
C198        C  0.07284081  0.15019080  0.36468188    -0.08200
C199        C  0.05305319  0.15380128  0.38897327    -0.02800
C200        C  0.06194206  0.13183621  0.42109247     0.04000
N201        N  0.04134439  0.13011462  0.44544691     0.66500
H202        H  0.09944141  0.09782866  0.45589602     0.15400
H203        H  0.06553856  0.16244719  0.33822274     0.15200
N204        N  0.12253141  0.12959987  0.34867046     0.74300
O205        O  0.01545541  0.10822167  0.43818705    -0.39200
O206        O  0.05298899  0.14217595  0.47713139    -0.39100
O207        O  0.11650004  0.10327575  0.32467089    -0.39800
O208        O  0.14127949  0.15879953  0.34623771    -0.39900
C209        C  0.24187031  0.21563980  0.01299020    -0.12200
C210        C  0.23047607  0.17947780  0.02362091     0.04800
C211        C  0.22283503  0.17716711  0.05698513    -0.07500
C212        C  0.22704016  0.21055169  0.07909006    -0.08200
C213        C  0.23851853  0.24680928  0.06859424    -0.02800
C214        C  0.24539276  0.24931490  0.03475927     0.04000
N215        N  0.25444260  0.28612686  0.02133047     0.66500
H216        H  0.24695970  0.21816219  0.98702312     0.15400
H217        H  0.22238076  0.20749340  0.10518580     0.15200
N218        N  0.21229239  0.14070552  0.06964020     0.74300
O219        O  0.28240422  0.29045446  0.01467012    -0.39200
O220        O  0.23239355  0.31099131  0.00965370    -0.39100
O221        O  0.23349529  0.11939596  0.08972040    -0.39800
O222        O  0.18182425  0.13404366  0.06701344    -0.39900
C223        C  0.27458007  0.17986300  0.20455629    -0.12200
C224        C  0.24928898  0.17386561  0.22212494     0.04800
C225        C  0.22333570  0.20087451  0.21624701    -0.07500
C226        C  0.22432972  0.23425801  0.19501161    -0.08200
C227        C  0.25059788  0.24118472  0.17914383    -0.02800
C228        C  0.27535470  0.21282392  0.18316451     0.04000
N229        N  0.30125574  0.21662935  0.16523308     0.66500
H230        H  0.29445417  0.15920362  0.20790032     0.15400
H231        H  0.20485766  0.25501282  0.19156586     0.15200
N232        N  0.19583198  0.19497961  0.23149221     0.74300
O233        O  0.33009763  0.22739513  0.18270289    -0.39200
O234        O  0.29731522  0.20055884  0.13501390    -0.39100
O235        O  0.19297951  0.21711687  0.25662226    -0.39800
O236        O  0.17149629  0.17318424  0.21547173    -0.39900
C237        C  0.99584955  0.30276587  0.41753229    -0.12200
C238        C  0.49334199  0.26431739  0.43017587     0.04800
C239        C  0.49379459  0.25910147  0.46644556    -0.07500
C240        C  0.49664437  0.29207484  0.48906634    -0.08200
C241        C  0.00025661  0.33049609  0.47657407    -0.02800
C242        C  0.99928160  0.33561685  0.44016477     0.04000
N243        N  0.00261507  0.37392153  0.42586916     0.66500
H244        H  0.99720849  0.30725521  0.39037329     0.15400
H245        H  0.49786009  0.28760654  0.01706002     0.15200
N246        N  0.49346353  0.22060056  0.48133236     0.74300
O247        O  0.02917128  0.38402548  0.41791648    -0.39200
O248        O  0.47753994  0.39471165  0.41574048    -0.39100
O249        O  0.02036866  0.20700038  0.49917850    -0.39800
O250        O  0.46659077  0.20617475  0.48569200    -0.39900
C251        C  0.13052459  0.35370609  0.11237387    -0.12200
C252        C  0.12490897  0.38229133  0.08542461     0.04800
C253        C  0.15164843  0.39508881  0.07173003    -0.07500
C254        C  0.18300297  0.37890125  0.08479874    -0.08200
C255        C  0.18848767  0.35006688  0.11161318    -0.02800
C256        C  0.16192276  0.33793809  0.12576376     0.04000
N257        N  0.16677032  0.31155606  0.15523456     0.66500
H258        H  0.11052191  0.34410420  0.12384427     0.15400
H259        H  0.20296665  0.38815674  0.07313710     0.15200
N260        N  0.14707940  0.42291370  0.04334275     0.74300
O261        O  0.18317640  0.32356535  0.18567154    -0.39200
O262        O  0.14868323  0.28062639  0.15271124    -0.39100
O263        O  0.15673430  0.45834841  0.05011586    -0.39800
O264        O  0.13937106  0.41072603  0.01142239    -0.39900
C265        C  0.00171891  0.71950211  0.01673106    -0.12200
C266        C  0.49817398  0.68167239  0.03044461     0.03200
C267        C  0.49570836  0.67782952  0.06593872    -0.07500
C268        C  0.49592865  0.71153719  0.08684679    -0.08200
C269        C  0.49778238  0.74934219  0.07276246    -0.02800
C270        C  0.00114513  0.75330086  0.03741949     0.04000
N271        N  0.00371073  0.79137355  0.02240220     0.66500
H272        H  0.00334569  0.72294056  0.98942954     0.15400
H273        H  0.49306643  0.70812543  0.11370642     0.15200
N274        N  0.49305540  0.63998475  0.58106373     0.74300
O275        O  0.03188001  0.80821021  0.02679745    -0.39200
O276        O  0.97907894  0.80473910  0.99977960    -0.39100
O277        O  0.51883523  0.62373209  0.59899189    -0.39800
O278        O  0.46490255  0.62685337  0.58284640    -0.39900
C279        C  0.02858900  0.71286262  0.22833748    -0.12200
C280        C  0.00189479  0.68779337  0.23060779     0.04800
C281        C  0.46979004  0.69592961  0.20987701    -0.07500
C282        C  0.46526328  0.72792405  0.18619335    -0.08200
C283        C  0.49224920  0.75259975  0.18339401    -0.02800
C284        C  0.02407403  0.74531207  0.20556847     0.04000
N285        N  0.05179769  0.77173258  0.20714259     0.66500
H286        H  0.05323056  0.70786517  0.24520056     0.15400
H287        H  0.44073068  0.73245866  0.16896426     0.15200
N288        N  0.44194110  0.67076103  0.21079078     0.74300
O289        O  0.05249216  0.80525538  0.22141595    -0.39200
O290        O  0.07809460  0.75884501  0.20150656    -0.39100
O291        O  0.41980758  0.68307248  0.22462445    -0.39800
O292        O  0.43682856  0.63905708  0.19290738    -0.39900
C293        C  0.50159964  0.30076990  0.26514291    -0.12200
C294        C  0.48353315  0.33340540  0.27045075     0.04800
C295        C  0.46576299  0.33095157  0.29690020    -0.07500
C296        C  0.46822653  0.29771075  0.31878507    -0.08200
C297        C  0.48776359  0.26561130  0.31499603    -0.02800
C298        C  0.50303879  0.26673181  0.28610825     0.04000
N299        N  0.01798414  0.23286908  0.27578345     0.66500
H300        H  0.01381976  0.30107058  0.24369056     0.15400
H301        H  0.45496894  0.29811611  0.33925092     0.15200
N302        N  0.44472388  0.36179256  0.30188395     0.74300
O303        O  0.50003077  0.20340802  0.26215468    -0.39200
O304        O  0.04770861  0.23524503  0.27374422    -0.39100
O305        O  0.41382625  0.35842075  0.28822402    -0.39800
O306        O  0.45602383  0.38853378  0.32478956    -0.39900
C307        C  0.35534567  0.39717223  0.18358531    -0.12200
C308        C  0.37675908  0.39527053  0.16118773     0.04800
C309        C  0.36573306  0.37588135  0.12800656    -0.07500
C310        C  0.33442292  0.35701816  0.11850599    -0.08200
C311        C  0.31380777  0.35539498  0.14225434    -0.02800
C312        C  0.32418025  0.37758473  0.17452799     0.04000
N313        N  0.30395466  0.37944209  0.19916538     0.66500
H314        H  0.36344213  0.41231519  0.20908856     0.15400
H315        H  0.32707933  0.34384221  0.09245401     0.15200
N316        N  0.38616223  0.37482266  0.10353900     0.74300
O317        O  0.31218853  0.36068992  0.22808557    -0.39200
O318        O  0.28361909  0.40681794  0.19635367    -0.39100
O319        O  0.40223738  0.34434913  0.10146940    -0.39800
O320        O  0.38349193  0.40102991  0.07994154    -0.39900
C321        C  0.25775839  0.75942858  0.46884278    -0.12200
C322        C  0.25553856  0.76769505  0.43283341     0.04800
C323        C  0.24996290  0.80672737  0.42073091    -0.07500
C324        C  0.24746455  0.83663040  0.44461491    -0.08200
C325        C  0.25091365  0.82887996  0.48093012    -0.02800
C326        C  0.25519168  0.78950306  0.49283731     0.04000
N327        N  0.25694392  0.77938241  0.02880064     0.66500
H328        H  0.26139680  0.72941465  0.47834855     0.15400
H329        H  0.24472356  0.86662481  0.43487221     0.15200
N330        N  0.25023967  0.81748742  0.38521031     0.74300
O331        O  0.23051309  0.77497301  0.03868923    -0.39200
O332        O  0.28400888  0.76842440  0.04895607    -0.39100
O333        O  0.22451417  0.83152929  0.36488339    -0.39800
O334        O  0.27783709  0.82326046  0.37803971    -0.39900
C335        C  0.27621601  0.78236880  0.30888251    -0.12200
C336        C  0.24876961  0.76192762  0.31615791     0.04800
C337        C  0.21650766  0.77375451  0.29855876    -0.07500
C338        C  0.21245939  0.80679974  0.27642681    -0.08200
C339        C  0.23986619  0.82768366  0.26992810    -0.02800
C340        C  0.27202696  0.81459808  0.28573146     0.04000
N341        N  0.30076456  0.83452845  0.27975822     0.66500
H342        H  0.30129942  0.77456953  0.32237473     0.15400
H343        H  0.18747306  0.81558269  0.26346760     0.15200
N344        N  0.18753779  0.75185523  0.30164569     0.74300
O345        O  0.31742328  0.85836179  0.30301057    -0.39200
O346        O  0.31295241  0.82265831  0.25515407    -0.39100
O347        O  0.16498200  0.76908588  0.31157656    -0.39800
O348        O  0.18174741  0.71767005  0.28821661    -0.39900
C349        C  0.13355266  0.66309969  0.36534105    -0.12200
C350        C  0.12566774  0.63245887  0.33977406     0.04800
C351        C  0.15100748  0.61844505  0.32528942    -0.07500
C352        C  0.18328839  0.63467007  0.33675418    -0.08200
C353        C  0.19110484  0.66519362  0.36230542    -0.02800
C354        C  0.16584102  0.67951522  0.37661144     0.04000
N355        N  0.17275621  0.70958896  0.40358314     0.66500
H356        H  0.11455380  0.67443708  0.37683240     0.15400
H357        H  0.20224154  0.62394693  0.32485857     0.15200
N358        N  0.14427660  0.58874663  0.29803119     0.74300
O359        O  0.16109067  0.74340076  0.39632782    -0.39200
O360        O  0.18457759  0.70027134  0.43577967    -0.39100
O361        O  0.13804186  0.59878118  0.26568274    -0.39800
O362        O  0.15054775  0.55329684  0.30631319    -0.39900
C363        C  0.33673203  0.65122919  0.37079853    -0.12200
C364        C  0.31611458  0.65514473  0.39421620     0.04800
C365        C  0.32503643  0.63473181  0.42717339    -0.07500
C366        C  0.35573615  0.61619771  0.43774834    -0.08200
C367        C  0.37760962  0.61637736  0.41564582    -0.02800
C368        C  0.36712245  0.63265659  0.38127471     0.04000
N369        N  0.38730677  0.63125397  0.35657849     0.66500
H370        H  0.33007196  0.66227140  0.34410597     0.15400
H371        H  0.36292341  0.60283673  0.46388270     0.15200
N372        N  0.30356549  0.63321962  0.45062666     0.74300
O373        O  0.38409213  0.60234482  0.33534987    -0.39200
O374        O  0.40385942  0.66159654  0.35182059    -0.39100
O375        O  0.28044082  0.60731281  0.44551123    -0.39800
O376        O  0.31207883  0.65122135  0.48022612    -0.39900
C377        C  0.28596212  0.68197858  0.88487089     0.86600
C378        C  0.25275932  0.65904193  0.87886058    -0.53700
C379        C  0.22559510  0.68218697  0.87222095     0.09500
C380        C  0.23420226  0.72671299  0.87200269     0.20400
C381        C  0.28165806  0.70783970  0.85111017    -0.54400
C382        C  0.25468447  0.73128069  0.84431502     0.09600
C383        C  0.28620525  0.71216850  0.91470449    -0.53900
C384        C  0.25920731  0.73549160  0.90803071     0.10200
H385        H  0.25083394  0.62704381  0.87881732     0.14700
H386        H  0.21249550  0.74581828  0.86725423     0.00400
H387        H  0.29860171  0.70940151  0.83437544     0.15000
H388        H  0.30653455  0.71570235  0.93857313     0.14800
In389      In  0.47469286  0.42967125  0.70190240     1.36900
C390        C  0.49591418  0.49594432  0.73978149     0.77700
O391        O  0.46529411  0.39813743  0.74938804    -0.60800
O392        O  0.99680312  0.37102179  0.72236040    -0.51700
C393        C  0.41143232  0.40968598  0.67439018     0.70300
O394        O  0.42019107  0.43858076  0.69572268    -0.46600
C395        C  0.49800991  0.43361077  0.64355006     0.75000
O396        O  0.46805768  0.49275193  0.71729204    -0.58400
O397        O  0.01585296  0.42360264  0.67368577    -0.48500
O398        O  0.01349559  0.46589416  0.74186974    -0.54800
C399        C  0.48203533  0.36852893  0.74697349     0.85200
O400        O  0.43497108  0.39247362  0.66646200    -0.56700
O401        O  0.46931003  0.44380822  0.64382778    -0.60000
In402      In  0.02673409  0.59604209  0.80266453     1.36900
C403        C  0.00687303  0.53128813  0.76236302     0.77700
O404        O  0.01669613  0.56083690  0.84916418    -0.60800
O405        O  0.50629307  0.62170015  0.84598494    -0.51700
C406        C  0.09081093  0.61727054  0.82767221     0.70300
O407        O  0.08116268  0.58930420  0.80554460    -0.46600
C408        C  0.00908108  0.65397212  0.75545427     0.75000
O409        O  0.03516256  0.53491792  0.78409093    -0.58400
O410        O  0.48894233  0.63896502  0.77137623    -0.48500
O411        O  0.48842496  0.56037292  0.76178477    -0.54800
C412        C  0.00723327  0.59013810  0.86350237     0.85200
O413        O  0.06777678  0.63259031  0.83808979    -0.56700
O414        O  0.03709754  0.63862801  0.76293662    -0.60000
In415      In  0.47674910  0.58909144  0.95733140     1.36900
C416        C  0.49925841  0.52382700  0.99284706     0.77700
O417        O  0.48869264  0.55743343  0.91056626    -0.60800
O418        O  0.99821505  0.61907016  0.91640668    -0.51700
C419        C  0.41231814  0.60375316  0.92970468     0.70300
O420        O  0.42204560  0.58327350  0.95735631    -0.46600
C421        C  0.49270232  0.64741918  0.00577231     0.75000
O422        O  0.47002591  0.52641868  0.97339099    -0.58400
O423        O  0.00630367  0.64423362  0.98032045    -0.48500
O424        O  0.01757865  0.55398769  0.99306170    -0.54800
C425        C  0.49808979  0.58867472  0.89777496     0.85200
O426        O  0.43517704  0.61456774  0.91591842    -0.56700
O427        O  0.47213761  0.61992519  0.00696596    -0.60000
In428      In  0.02898676  0.42213095  0.55025985     1.36900
C429        C  0.01041805  0.48825676  0.51385176     0.77700
O430        O  0.02502104  0.39405099  0.49697501    -0.60800
O431        O  0.50219383  0.36350177  0.53240207    -0.51700
C432        C  0.09092688  0.39748086  0.57233005     0.70300
O433        O  0.08423481  0.42952091  0.55559322    -0.46600
C434        C  0.50891669  0.43137612  0.61033873     0.75000
O435        O  0.03969124  0.48409313  0.53283584    -0.58400
O436        O  0.48924962  0.42270290  0.58055799    -0.48500
O437        O  0.49090185  0.45916753  0.51426388    -0.54800
C438        C  0.00888380  0.36378311  0.50245850     0.85200
O439        O  0.06600696  0.37890286  0.57762235    -0.56700
O440        O  0.03870492  0.43656911  0.60938750    -0.60000
C441        C  0.28169580  0.32962045  0.63409437     0.86600
C442        C  0.28052305  0.30068350  0.66427656    -0.53700
C443        C  0.25215785  0.27771964  0.65843071     0.09500
C444        C  0.22667952  0.28679041  0.62305419     0.20400
C445        C  0.27487169  0.30232179  0.60076499    -0.54400
C446        C  0.24604140  0.28009971  0.59480119     0.09600
C447        C  0.25040960  0.35379011  0.62867910    -0.53900
C448        C  0.22156130  0.33177598  0.62285175     0.10200
H449        H  0.30160147  0.29635996  0.68698977     0.14700
H450        H  0.20327038  0.26878375  0.61835654     0.00400
H451        H  0.29257340  0.29675881  0.58561873     0.15000
H452        H  0.25095456  0.38581626  0.62811369     0.14800
In453      In  0.21161679  0.08641692  0.95103518     1.36900
C454        C  0.23532218  0.02362526  0.98925124     0.77700
O455        O  0.22527720  0.05327844  0.90623646    -0.60800
O456        O  0.23369524  0.11539619  0.91004503    -0.51700
C457        C  0.14773239  0.09960120  0.92141986     0.70300
O458        O  0.15694003  0.07794078  0.94840054    -0.46600
C459        C  0.22495410  0.14546753  0.99867564     0.75000
O460        O  0.20603868  0.02439588  0.96957342    -0.58400
O461        O  0.24095914  0.14110589  0.97546530    -0.48500
O462        O  0.25285285  0.05443159  0.98843541    -0.54800
C463        C  0.23461181  0.08410469  0.89278584     0.85200
O464        O  0.17092498  0.11191611  0.90874064    -0.56700
O465        O  0.20299284  0.11907421  0.99802090    -0.60000
In466      In  0.27140999  0.92630260  0.54863833     1.36900
C467        C  0.24815734  0.98959202  0.51122140     0.77700
O468        O  0.25243499  0.89806139  0.49477141    -0.60800
O469        O  0.26287333  0.86034277  0.53930144    -0.51700
C470        C  0.33691730  0.91792688  0.56803579     0.70300
O471        O  0.32063682  0.92003218  0.53599334    -0.46600
C472        C  0.24821504  0.92663676  0.60661554     0.75000
O473        O  0.27819094  0.98739093  0.52861178    -0.58400
O474        O  0.25670454  0.95793032  0.59335835    -0.48500
O475        O  0.22984539  0.96005162  0.51405844    -0.54800
C476        C  0.25467662  0.86306894  0.50576903     0.85200
O477        O  0.32027881  0.92489997  0.59002511    -0.56700
O478        O  0.24965773  0.89574143  0.58909960    -0.60000
C479        C  0.02312196  0.18067606  0.88084817     0.86600
C480        C  0.49008806  0.15753011  0.87143575    -0.53700
C481        C  0.46274742  0.18020123  0.86527447     0.09500
C482        C  0.47115652  0.22488357  0.86845372     0.20400
C483        C  0.02077231  0.21028220  0.84994776    -0.54400
C484        C  0.49319014  0.23303278  0.84239765     0.09600
C485        C  0.02182332  0.20757329  0.91233154    -0.53900
C486        C  0.49477821  0.23083841  0.90615211     0.10200
H487        H  0.48850206  0.12552616  0.86989449     0.14700
H488        H  0.44887309  0.24285104  0.86351740     0.00400
H489        H  0.04108445  0.21632097  0.83809506     0.15000
H490        H  0.04199101  0.21042442  0.93642485     0.14800
In491      In  0.26652776  0.08710549  0.79971683     1.36900
C492        C  0.24639352  0.02131129  0.76210276     0.77700
O493        O  0.25564959  0.05439298  0.84687113    -0.60800
O494        O  0.24409506  0.11476929  0.84053442    -0.51700
C495        C  0.33006141  0.10906052  0.82546519     0.70300
O496        O  0.32130016  0.07811229  0.80698321    -0.46600
C497        C  0.25293237  0.14136353  0.74851441     0.75000
O498        O  0.27484726  0.02556443  0.78335333    -0.58400
O499        O  0.23374211  0.13451233  0.76845743    -0.48500
O500        O  0.22756383  0.04999763  0.76132615    -0.54800
C501        C  0.24501419  0.08425317  0.85924855     0.85200
O502        O  0.30642092  0.12683113  0.83249649    -0.56700
O503        O  0.27735442  0.11919170  0.75398772    -0.60000
In504      In  0.21748482  0.92106319  0.69981706     1.36900
C505        C  0.23625395  0.98590639  0.73963128     0.77700
O506        O  0.20621279  0.87937219  0.73963264    -0.60800
O507        O  0.25389541  0.87699845  0.73010321    -0.51700
C508        C  0.15395526  0.90067005  0.67324712     0.70300
O509        O  0.16323932  0.92845167  0.69560900    -0.46600
C510        C  0.23822748  0.92567562  0.64022313     0.75000
O511        O  0.20800522  0.98166971  0.71802064    -0.58400
O512        O  0.23900427  0.89459491  0.65808223    -0.48500
O513        O  0.25526015  0.95750139  0.74019065    -0.54800
C514        C  0.23355241  0.86249767  0.74614272     0.85200
O515        O  0.17715176  0.88520414  0.66332191    -0.56700
O516        O  0.22824555  0.95533360  0.65358083    -0.60000
C517        C  0.45986268  0.83389671  0.61327064     0.86600
C518        C  0.46497809  0.80596499  0.58368924    -0.53700
C519        C  0.49251748  0.78378952  0.59377960     0.09500
C520        C  0.01252885  0.79122411  0.63260889     0.20400
C521        C  0.45963058  0.80534048  0.64438978    -0.54400
C522        C  0.48754013  0.78345811  0.65492531     0.09600
C523        C  0.49231855  0.85813371  0.62521911    -0.53900
C524        C  0.01986430  0.83600187  0.63549501     0.10200
H525        H  0.44688791  0.80087071  0.55829989     0.14700
H526        H  0.03488856  0.77302952  0.63986595     0.00400
H527        H  0.43895247  0.80191092  0.65638971     0.15000
H528        H  0.49341357  0.89013164  0.62433451     0.14800
C529        C  0.07712070  0.83871435  0.62878017    -0.12200
C530        C  0.05382349  0.85357871  0.64527471     0.04800
C531        C  0.06310503  0.88531706  0.66972216    -0.07500
C532        C  0.09557111  0.90109324  0.67755453    -0.08200
C533        C  0.11914481  0.88582338  0.66144256    -0.02800
C534        C  0.10947688  0.85456422  0.63642562     0.04000
N535        N  0.13207904  0.83849104  0.61843513     0.66500
H536        H  0.07005464  0.81488805  0.60940949     0.15400
H537        H  0.10253754  0.92475854  0.69708193     0.15200
N538        N  0.04036937  0.90083607  0.68789389     0.74300
O539        O  0.14729568  0.80769351  0.63025269    -0.39200
O540        O  0.13189783  0.85035127  0.58753044    -0.39100
O541        O  0.03778283  0.88528004  0.71665536    -0.39800
O542        O  0.02881582  0.93453997  0.67976645    -0.39900
C543        C  0.37198643  0.15616424  0.86152976    -0.12200
C544        C  0.36465602  0.12497058  0.83670772     0.04800
C545        C  0.38977543  0.11214667  0.82133325    -0.07500
C546        C  0.42120345  0.13099833  0.83058252    -0.08200
C547        C  0.42850851  0.16238276  0.85537936    -0.02800
C548        C  0.40344234  0.17476509  0.87106909     0.04000
N549        N  0.40982599  0.20412584  0.89858613     0.66500
H550        H  0.35314273  0.16625929  0.87389768     0.15400
H551        H  0.44000682  0.12110716  0.81807049     0.15200
N552        N  0.38364431  0.08078785  0.79562927     0.74300
O553        O  0.40146138  0.23906735  0.89047883    -0.39200
O554        O  0.41277138  0.19302696  0.93026258    -0.39100
O555        O  0.37914263  0.08859367  0.76292675    -0.39800
O556        O  0.38822367  0.04563418  0.80598017    -0.39900
C557        C  0.38593773  0.89864777  0.61567699    -0.12200
C558        C  0.37133038  0.90403822  0.57918781     0.04800
C559        C  0.38822926  0.89125006  0.55425588    -0.07500
C560        C  0.41738795  0.87033344  0.56592627    -0.08200
C561        C  0.42999649  0.86058253  0.60217545    -0.02800
C562        C  0.41534074  0.87806161  0.62743365     0.04000
N563        N  0.42974231  0.87532124  0.66506862     0.66500
H564        H  0.37405919  0.90970850  0.63536358     0.15400
H565        H  0.42978907  0.86140855  0.54603864     0.15200
N566        N  0.37558428  0.89777894  0.51681924     0.74300
O567        O  0.45646215  0.89418518  0.67909684    -0.39200
O568        O  0.41281090  0.86066405  0.68487542    -0.39100
O569        O  0.38952136  0.92351447  0.50163232    -0.39800
O570        O  0.35540723  0.87285162  0.49807520    -0.39900
C571        C  0.09198742  0.11205144  0.93016597    -0.12200
C572        C  0.11335065  0.11274476  0.90760475     0.04800
C573        C  0.10283245  0.13048619  0.87385926    -0.07500
C574        C  0.07283900  0.15006335  0.86464997    -0.08200
C575        C  0.05301661  0.15365453  0.88890720    -0.02800
C576        C  0.06184899  0.13164027  0.92100144     0.04000
N577        N  0.04120605  0.12989146  0.94530950     0.66500
H578        H  0.09929485  0.09758166  0.95581835     0.15400
H579        H  0.06557849  0.16236277  0.83820545     0.15200
N580        N  0.12255456  0.12947296  0.84869536     0.74300
O581        O  0.01531437  0.10800346  0.93799069    -0.39200
O582        O  0.05281281  0.14191212  0.97701227    -0.39100
O583        O  0.11652289  0.10320316  0.82464723    -0.39800
O584        O  0.14133694  0.15866508  0.84633800    -0.39900
C585        C  0.24177247  0.21572940  0.51290275    -0.12200
C586        C  0.23048421  0.17951724  0.52355263     0.04800
C587        C  0.22291034  0.17714190  0.55694867    -0.07500
C588        C  0.22708212  0.21051175  0.57906720    -0.08200
C589        C  0.23847077  0.24681039  0.56855843    -0.02800
C590        C  0.24526826  0.24938431  0.53469253     0.04000
N591        N  0.25420779  0.28624489  0.52125866     0.66500
H592        H  0.24680243  0.21830230  0.48691082     0.15400
H593        H  0.22247438  0.20741395  0.60518376     0.15200
N594        N  0.21247470  0.14063317  0.56962070     0.74300
O595        O  0.28214918  0.29069554  0.51457308    -0.39200
O596        O  0.23208387  0.31102659  0.50959936    -0.39100
O597        O  0.23375212  0.11937174  0.58965510    -0.39800
O598        O  0.18202986  0.13387287  0.56705839    -0.39900
C599        C  0.27454539  0.17981699  0.70460841    -0.12200
C600        C  0.24926757  0.17385791  0.72220109     0.04800
C601        C  0.22331041  0.20086321  0.71629824    -0.07500
C602        C  0.22429294  0.23421334  0.69501937    -0.08200
C603        C  0.25055321  0.24110864  0.67913333    -0.02800
C604        C  0.27530881  0.21274391  0.68317478     0.04000
N605        N  0.30120277  0.21651574  0.66523056     0.66500
H606        H  0.29442014  0.15915654  0.70796823     0.15400
H607        H  0.20482358  0.25497123  0.69156141     0.15200
N608        N  0.19581766  0.19500233  0.73156643     0.74300
O609        O  0.33004747  0.22729188  0.68268380    -0.39200
O610        O  0.29725654  0.20039756  0.63503060    -0.39100
O611        O  0.19297785  0.21717892  0.75667594    -0.39800
O612        O  0.17147565  0.17319724  0.71557847    -0.39900
C613        C  0.99585701  0.30263450  0.91751213    -0.12200
C614        C  0.49332595  0.26445531  0.93020278     0.04800
C615        C  0.49375024  0.25924533  0.96646510    -0.07500
C616        C  0.49659832  0.29222202  0.98908056    -0.08200
C617        C  0.00029660  0.33034839  0.97656882    -0.02800
C618        C  0.99931451  0.33547792  0.94015817     0.04000
N619        N  0.00267546  0.37378238  0.92587526     0.66500
H620        H  0.99720228  0.30713268  0.89034988     0.15400
H621        H  0.49792016  0.28745430  0.51704822     0.15200
N622        N  0.49339395  0.22074646  0.98135086     0.74300
O623        O  0.02928198  0.38390785  0.91803999    -0.39200
O624        O  0.47754096  0.39486815  0.91578890    -0.39100
O625        O  0.02043831  0.20688302  0.99917235    -0.39800
O626        O  0.46651759  0.20635903  0.98573440    -0.39900
C627        C  0.13048206  0.35365482  0.61230275    -0.12200
C628        C  0.12491161  0.38232401  0.58542646     0.04800
C629        C  0.15168442  0.39516995  0.57180717    -0.07500
C630        C  0.18302634  0.37894985  0.58487815    -0.08200
C631        C  0.18846724  0.35003459  0.61162297    -0.02800
C632        C  0.16186591  0.33785196  0.62569300     0.04000
N633        N  0.16666113  0.31137875  0.65509217     0.66500
H634        H  0.11045394  0.34400858  0.62371635     0.15400
H635        H  0.20301516  0.38824853  0.57327143     0.15200
N636        N  0.14716465  0.42308509  0.54349457     0.74300
O637        O  0.18290335  0.32335780  0.68560284    -0.39200
O638        O  0.14864249  0.28037592  0.65241093    -0.39100
O639        O  0.15682222  0.45850314  0.55037031    -0.39800
O640        O  0.13949794  0.41099750  0.51154416    -0.39900
C641        C  0.00207889  0.71951690  0.51706879    -0.12200
C642        C  0.49813505  0.68169157  0.53026181     0.03200
C643        C  0.49594165  0.67788625  0.56585060    -0.07500
C644        C  0.49616381  0.71162056  0.58672659    -0.08200
C645        C  0.49774021  0.74941296  0.57251894    -0.02800
C646        C  0.00152374  0.75329622  0.53779010     0.04000
N647        N  0.00440592  0.79138300  0.52292516     0.66500
H648        H  0.00392681  0.72298378  0.48984568     0.15400
H649        H  0.49351626  0.70822660  0.61366940     0.15200
N650        N  0.49254615  0.63991858  0.08102004     0.74300
O651        O  0.03267548  0.80804907  0.52763909    -0.39200
O652        O  0.97996979  0.80496659  0.50017700    -0.39100
O653        O  0.51817276  0.62350118  0.09910334    -0.39800
O654        O  0.46427188  0.62693316  0.08252478    -0.39900
C655        C  0.02857254  0.71292479  0.72856920    -0.12200
C656        C  0.00188458  0.68784037  0.73082871     0.04800
C657        C  0.46980441  0.69594520  0.70963830    -0.07500
C658        C  0.46528707  0.72793845  0.68595411    -0.08200
C659        C  0.49227512  0.75261621  0.68316837    -0.02800
C660        C  0.02405334  0.74537819  0.70580763     0.04000
N661        N  0.05177642  0.77180063  0.70738011     0.66500
H662        H  0.05321643  0.70792746  0.74542682     0.15400
H663        H  0.44075839  0.73247440  0.66871642     0.15200
N664        N  0.44195468  0.67076663  0.71052557     0.74300
O665        O  0.05242124  0.80537749  0.72154113    -0.39200
O666        O  0.07809910  0.75890184  0.70181739    -0.39100
O667        O  0.41979027  0.68307682  0.72431352    -0.39800
O668        O  0.43687570  0.63905174  0.69265801    -0.39900
C669        C  0.50158273  0.30083815  0.76516385    -0.12200
C670        C  0.48352259  0.33348065  0.77046910     0.04800
C671        C  0.46575783  0.33104067  0.79692390    -0.07500
C672        C  0.46822049  0.29780671  0.81881661    -0.08200
C673        C  0.48774823  0.26569894  0.81502703    -0.02800
C674        C  0.50301805  0.26680512  0.78613497     0.04000
N675        N  0.01805410  0.23284740  0.77577094     0.66500
H676        H  0.01387043  0.30105029  0.74368602     0.15400
H677        H  0.45496786  0.29822183  0.83928670     0.15200
N678        N  0.44472243  0.36188769  0.80190258     0.74300
O679        O  0.49999670  0.20346231  0.76221615    -0.39200
O680        O  0.04778966  0.23524386  0.77377134    -0.39100
O681        O  0.41383294  0.35855747  0.78817809    -0.39800
O682        O  0.45600497  0.38858689  0.82485611    -0.39900
C683        C  0.35533704  0.39706942  0.68363199    -0.12200
C684        C  0.37672939  0.39522509  0.66120752     0.04800
C685        C  0.36569399  0.37586082  0.62801552    -0.07500
C686        C  0.33438984  0.35698228  0.61852047    -0.08200
C687        C  0.31378923  0.35531936  0.64228284    -0.02800
C688        C  0.32417871  0.37746507  0.67458090     0.04000
N689        N  0.30398070  0.37925582  0.69925045     0.66500
H690        H  0.36344515  0.41218300  0.70914889     0.15400
H691        H  0.32703631  0.34383067  0.59245778     0.15200
N692        N  0.38610610  0.37484951  0.60352877     0.74300
O693        O  0.31225674  0.36047600  0.72815242    -0.39200
O694        O  0.28362165  0.40659972  0.69648444    -0.39100
O695        O  0.40216995  0.34438238  0.60140157    -0.39800
O696        O  0.38344210  0.40110974  0.57997885    -0.39900
C697        C  0.25770592  0.75940217  0.96854775    -0.12200
C698        C  0.25546563  0.76771637  0.93254435     0.04800
C699        C  0.24985184  0.80675567  0.92047594    -0.07500
C700        C  0.24737843  0.83662770  0.94440265    -0.08200
C701        C  0.25086057  0.82882805  0.98071743    -0.02800
C702        C  0.25514446  0.78943606  0.99257718     0.04000
N703        N  0.25694923  0.77950449  0.52906509     0.66500
H704        H  0.26137084  0.72938097  0.97802675     0.15400
H705        H  0.24460825  0.86663150  0.93468866     0.15200
N706        N  0.25004036  0.81755151  0.88493880     0.74300
O707        O  0.23051077  0.77538313  0.53898154    -0.39200
O708        O  0.28395164  0.76836323  0.54921605    -0.39100
O709        O  0.22422548  0.83141855  0.86462752    -0.39800
O710        O  0.27759748  0.82353765  0.87773033    -0.39900
C711        C  0.27627889  0.78248293  0.80870039    -0.12200
C712        C  0.24883090  0.76197205  0.81589913     0.04800
C713        C  0.21656731  0.77374849  0.79825690    -0.07500
C714        C  0.21251080  0.80683096  0.77617412    -0.08200
C715        C  0.23991663  0.82779243  0.76975932    -0.02800
C716        C  0.27208479  0.81474215  0.78558440     0.04000
N717        N  0.30081993  0.83473317  0.77966651     0.66500
H718        H  0.30136152  0.77470842  0.82222189     0.15400
H719        H  0.18752217  0.81558305  0.76318616     0.15200
N720        N  0.18760937  0.75175836  0.80124951     0.74300
O721        O  0.31755193  0.85837744  0.80305028    -0.39200
O722        O  0.31293628  0.82306281  0.75494139    -0.39100
O723        O  0.16499912  0.76889525  0.81116124    -0.39800
O724        O  0.18188347  0.71760425  0.78774140    -0.39900
C725        C  0.13368930  0.66294005  0.86532211    -0.12200
C726        C  0.12575481  0.63238600  0.83967116     0.04800
C727        C  0.15103899  0.61849603  0.82503055    -0.07500
C728        C  0.18331882  0.63474044  0.83644088    -0.08200
C729        C  0.19117666  0.66518366  0.86206564    -0.02800
C730        C  0.16596890  0.67939370  0.87651661     0.04000
N731        N  0.17293934  0.70939517  0.90355424     0.66500
H732        H  0.11473465  0.67418920  0.87692846     0.15400
H733        H  0.20223528  0.62410624  0.82444529     0.15200
N734        N  0.14424802  0.58891546  0.79766671     0.74300
O735        O  0.16132406  0.74324295  0.89638060    -0.39200
O736        O  0.18477132  0.69998770  0.93572562    -0.39100
O737        O  0.13780683  0.59909743  0.76534709    -0.39800
O738        O  0.15067846  0.55346312  0.80578738    -0.39900
C739        C  0.33684583  0.65135510  0.87065337    -0.12200
C740        C  0.31619964  0.65527174  0.89404076     0.04800
C741        C  0.32513214  0.63493607  0.92704088    -0.07500
C742        C  0.35584159  0.61643146  0.93765320    -0.08200
C743        C  0.37772853  0.61659752  0.91556969    -0.02800
C744        C  0.36726171  0.63284538  0.88118586     0.04000
N745        N  0.38749561  0.63147292  0.85653750     0.66500
H746        H  0.33019171  0.66236534  0.84394543     0.15400
H747        H  0.36303440  0.60312295  0.96381040     0.15200
N748        N  0.30369236  0.63353738  0.95053140     0.74300
O749        O  0.38434948  0.60255762  0.83532588    -0.39200
O750        O  0.40403517  0.66183759  0.85180574    -0.39100
O751        O  0.28040272  0.60784057  0.94535454    -0.39800
O752        O  0.31234136  0.65141779  0.98018556    -0.39900
C753        C  0.78598600  0.68198193  0.38485143     0.86600
C754        C  0.75278052  0.65905531  0.37886092    -0.53700
C755        C  0.72562118  0.68220739  0.37224167     0.09500
C756        C  0.73423766  0.72673238  0.37202976     0.20400
C757        C  0.78166646  0.70784879  0.35109245    -0.54400
C758        C  0.75470014  0.73130053  0.34432350     0.09600
C759        C  0.78625541  0.71216573  0.41469575    -0.53900
C760        C  0.75926417  0.73549881  0.40804845     0.10200
H761        H  0.75084977  0.62705736  0.37881273     0.14700
H762        H  0.71253540  0.74584257  0.36729868     0.00400
H763        H  0.79859236  0.70940287  0.33433478     0.15000
H764        H  0.80659825  0.71568691  0.43855355     0.14800
In765      In  0.97468645  0.42963947  0.20190752     1.36900
C766        C  0.99590901  0.49590477  0.23979186     0.77700
O767        O  0.96527021  0.39810740  0.24938690    -0.60800
O768        O  0.49682038  0.37103323  0.22236350    -0.51700
C769        C  0.91142811  0.40967412  0.17437482     0.70300
O770        O  0.92018621  0.43857802  0.19569691    -0.46600
C771        C  0.99801025  0.43358333  0.14356124     0.75000
O772        O  0.96805080  0.49271371  0.21730585    -0.58400
O773        O  0.51586145  0.42361961  0.17368894    -0.48500
O774        O  0.51351131  0.46590197  0.24188417    -0.54800
C775        C  0.98201122  0.36849716  0.24697676     0.85200
O776        O  0.93496778  0.39243914  0.16646983    -0.56700
O777        O  0.96931013  0.44378114  0.14383630    -0.60000
In778      In  0.52675461  0.59604994  0.30268732     1.36900
C779        C  0.50689135  0.53129428  0.26238548     0.77700
O780        O  0.51672496  0.56085897  0.34919979    -0.60800
O781        O  0.00629051  0.62166424  0.34597958    -0.51700
C782        C  0.59083004  0.61729887  0.32768855     0.70300
O783        O  0.58118805  0.58930624  0.30558801    -0.46600
C784        C  0.50908624  0.65396335  0.25546626     0.75000
O785        O  0.53518129  0.53492320  0.28411311    -0.58400
O786        O  0.98894602  0.63892829  0.27137203    -0.48500
O787        O  0.98842006  0.56033135  0.26179416    -0.54800
C788        C  0.50725398  0.59016301  0.36352693     0.85200
O789        O  0.56779032  0.63263848  0.33808129    -0.56700
O790        O  0.53710226  0.63861758  0.26293783    -0.60000
In791      In  0.97674618  0.58907047  0.45732466     1.36900
C792        C  0.99925928  0.52381342  0.49285071     0.77700
O793        O  0.98868423  0.55740473  0.41056030    -0.60800
O794        O  0.49822150  0.61911270  0.41641823    -0.51700
C795        C  0.91231793  0.60372276  0.42967603     0.70300
O796        O  0.92203393  0.58320454  0.45730540    -0.46600
C797        C  0.99269287  0.64740536  0.50575796     0.75000
O798        O  0.97002703  0.52640159  0.47339358    -0.58400
O799        O  0.50631523  0.64428765  0.48033288    -0.48500
O800        O  0.51758244  0.55402573  0.49307179    -0.54800
C801        C  0.99808802  0.58864262  0.39777021     0.85200
O802        O  0.93518840  0.61458912  0.41592655    -0.56700
O803        O  0.97211876  0.61992034  0.50694859    -0.60000
In804      In  0.52898627  0.42214682  0.05025979     1.36900
C805        C  0.51041598  0.48827009  0.01384851     0.77700
O806        O  0.52504203  0.39407277  0.99697693    -0.60800
O807        O  0.00219175  0.36347609  0.03242423    -0.51700
C808        C  0.59092336  0.39749658  0.07234084     0.70300
O809        O  0.58423445  0.42953957  0.05560797    -0.46600
C810        C  0.00891893  0.43135068  0.11035185     0.75000
O811        O  0.53969076  0.48410414  0.03282746    -0.58400
O812        O  0.98925214  0.42268196  0.08057016    -0.48500
O813        O  0.99090542  0.45913302  0.01427154    -0.54800
C814        C  0.50890480  0.36380124  0.00245159     0.85200
O815        O  0.56600176  0.37891593  0.07762618    -0.56700
O816        O  0.53870423  0.43659407  0.10938534    -0.60000
C817        C  0.78168644  0.32963835  0.13406832     0.86600
C818        C  0.78053076  0.30070276  0.16425598    -0.53700
C819        C  0.75216729  0.27773930  0.15842781     0.09500
C820        C  0.72667394  0.28680616  0.12306087     0.20400
C821        C  0.77484660  0.30234092  0.10073656    -0.54400
C822        C  0.74601819  0.28011627  0.09479214     0.09600
C823        C  0.75040112  0.35380647  0.12866937    -0.53900
C824        C  0.72155471  0.33179107  0.12285894     0.10200
H825        H  0.80161620  0.29638525  0.18696287     0.14700
H826        H  0.70326671  0.26879751  0.11837678     0.00400
H827        H  0.79252896  0.29678690  0.08557002     0.15000
H828        H  0.75094391  0.38583225  0.12809720     0.14800
In829      In  0.71162421  0.08641379  0.45106551     1.36900
C830        C  0.73535273  0.02362042  0.48927022     0.77700
O831        O  0.72525304  0.05328817  0.40624391    -0.60800
O832        O  0.73371176  0.11539976  0.41008631    -0.51700
C833        C  0.64774125  0.09959217  0.42144224     0.70300
O834        O  0.65694502  0.07792528  0.44841939    -0.46600
C835        C  0.72493798  0.14546883  0.49870060     0.75000
O836        O  0.70605931  0.02439670  0.46961801    -0.58400
O837        O  0.74094396  0.14111751  0.47548984    -0.48500
O838        O  0.75288188  0.05442395  0.48843671    -0.54800
C839        C  0.73460291  0.08411531  0.39280755     0.85200
O840        O  0.67093699  0.11191692  0.40877297    -0.56700
O841        O  0.70299211  0.11905845  0.49805425    -0.60000
In842      In  0.77139881  0.92629519  0.04868098     1.36900
C843        C  0.74814170  0.98958585  0.01126352     0.77700
O844        O  0.75248680  0.89804937  0.99480787    -0.60800
O845        O  0.76291651  0.86033036  0.03933784    -0.51700
C846        C  0.83689867  0.91786622  0.06812142     0.70300
O847        O  0.82066169  0.92016995  0.03607769    -0.46600
C848        C  0.74817314  0.92667358  0.10663300     0.75000
O849        O  0.77817135  0.98739219  0.02866718    -0.58400
O850        O  0.75686704  0.95793823  0.09349764    -0.48500
O851        O  0.72983302  0.96003909  0.01409085    -0.54800
C852        C  0.75474163  0.86305704  0.00580525     0.85200
O853        O  0.82022162  0.92466126  0.09011114    -0.56700
O854        O  0.74942342  0.89580323  0.08900324    -0.60000
C855        C  0.52314116  0.18067795  0.38084738     0.86600
C856        C  0.99007495  0.15751121  0.37145716    -0.53700
C857        C  0.96273155  0.18017877  0.36529859     0.09500
C858        C  0.97113618  0.22486186  0.36846701     0.20400
C859        C  0.52079305  0.21028170  0.34994496    -0.54400
C860        C  0.99316118  0.23300735  0.34240246     0.09600
C861        C  0.52184433  0.20757781  0.41232964    -0.53900
C862        C  0.99476347  0.23082613  0.40616058     0.10200
H863        H  0.98849219  0.12550698  0.36992129     0.14700
H864        H  0.94885227  0.24282780  0.36353090     0.00400
H865        H  0.54110439  0.21631626  0.33809014     0.15000
H866        H  0.54201257  0.21042879  0.43642253     0.14800
In867      In  0.76650131  0.08713184  0.29973130     1.36900
C868        C  0.74635002  0.02134293  0.26211551     0.77700
O869        O  0.75561497  0.05440969  0.34687396    -0.60800
O870        O  0.74408387  0.11479500  0.34056146    -0.51700
C871        C  0.83003974  0.10905533  0.32548916     0.70300
O872        O  0.82126954  0.07812517  0.30698313    -0.46600
C873        C  0.75292806  0.14140874  0.24854363     0.75000
O874        O  0.77480335  0.02558729  0.28336836    -0.58400
O875        O  0.73373302  0.13455973  0.26848207    -0.48500
O876        O  0.72752806  0.05003813  0.26133451    -0.54800
C877        C  0.74499519  0.08427153  0.35926526     0.85200
O878        O  0.80640520  0.12682146  0.33253817    -0.56700
O879        O  0.77734317  0.11922643  0.25401407    -0.60000
In880      In  0.71744096  0.92109507  0.19983620     1.36900
C881        C  0.73620547  0.98593688  0.23964676     0.77700
O882        O  0.70618647  0.87939808  0.23965753    -0.60800
O883        O  0.75386433  0.87703764  0.23011590    -0.51700
C884        C  0.65390934  0.90071680  0.17326689     0.70300
O885        O  0.66319417  0.92849059  0.19563742    -0.46600
C886        C  0.73818245  0.92570807  0.14023901     0.75000
O887        O  0.70795862  0.98170552  0.21802887    -0.58400
O888        O  0.73885149  0.89459347  0.15803145    -0.48500
O889        O  0.75520861  0.95752572  0.24021635    -0.54800
C890        C  0.73352851  0.86252966  0.24616116     0.85200
O891        O  0.67710401  0.88526373  0.16333049    -0.56700
O892        O  0.72830989  0.95539454  0.15366485    -0.60000
C893        C  0.95986179  0.83385720  0.11328229     0.86600
C894        C  0.96495581  0.80593319  0.08368590    -0.53700
C895        C  0.99249320  0.78375081  0.09375363     0.09500
C896        C  0.51250791  0.79122784  0.13263380     0.20400
C897        C  0.95964224  0.80529166  0.14439699    -0.54400
C898        C  0.98754919  0.78340293  0.15491049     0.09600
C899        C  0.99232232  0.85808724  0.12521862    -0.53900
C900        C  0.51983122  0.83600860  0.13551794     0.10200
H901        H  0.94685144  0.80084821  0.05830456     0.14700
H902        H  0.53487161  0.77304029  0.13989617     0.00400
H903        H  0.93897205  0.80185719  0.15640828     0.15000
H904        H  0.99342026  0.89008556  0.12434517     0.14800
C905        C  0.57709614  0.83871208  0.12883259    -0.12200
C906        C  0.55378582  0.85359949  0.14529589     0.04800
C907        C  0.56305109  0.88537111  0.16970988    -0.07500
C908        C  0.59551406  0.90115775  0.17753950    -0.08200
C909        C  0.61910162  0.88586098  0.16146227    -0.02800
C910        C  0.60945035  0.85456517  0.13648083     0.04000
N911        N  0.63207170  0.83844418  0.11854083     0.66500
H912        H  0.57004456  0.81485862  0.10948844     0.15400
H913        H  0.60246796  0.92485037  0.19704047     0.15200
N914        N  0.54030410  0.90090948  0.18785680     0.74300
O915        O  0.64732575  0.80770096  0.13045480    -0.39200
O916        O  0.63187218  0.85018911  0.08759767    -0.39100
O917        O  0.53768626  0.88535910  0.21660944    -0.39800
O918        O  0.52876009  0.93461471  0.17971227    -0.39900
C919        C  0.87197039  0.15614677  0.36156020    -0.12200
C920        C  0.86463743  0.12495399  0.33673756     0.04800
C921        C  0.88975623  0.11212540  0.32136450    -0.07500
C922        C  0.92118687  0.13097045  0.33061727    -0.08200
C923        C  0.92849329  0.16235779  0.35541110    -0.02800
C924        C  0.90342636  0.17474685  0.37109748     0.04000
N925        N  0.90980437  0.20412430  0.39860016     0.66500
H926        H  0.85312643  0.16624785  0.37392492     0.15400
H927        H  0.93998953  0.12107614  0.31810565     0.15200
N928        N  0.88362014  0.08077372  0.29565330     0.74300
O929        O  0.90144042  0.23906152  0.39047166    -0.39200
O930        O  0.91273333  0.19304566  0.43027954    -0.39100
O931        O  0.87911184  0.08858892  0.26295182    -0.39800
O932        O  0.88819625  0.04561658  0.30599499    -0.39900
C933        C  0.88592382  0.89855918  0.11574304    -0.12200
C934        C  0.87131000  0.90397089  0.07925830     0.04800
C935        C  0.88820879  0.89121699  0.05431416    -0.07500
C936        C  0.91737834  0.87031687  0.06596839    -0.08200
C937        C  0.92999545  0.86054531  0.10221113    -0.02800
C938        C  0.91533786  0.87799117  0.12748334     0.04000
N939        N  0.92975186  0.87524194  0.16511556     0.66500
H940        H  0.87404657  0.90959916  0.13543872     0.15400
H941        H  0.92977717  0.86141116  0.04607259     0.15200
N942        N  0.87554351  0.89774205  0.01687954     0.74300
O943        O  0.95647771  0.89409758  0.17913699    -0.39200
O944        O  0.91283003  0.86057875  0.18492945    -0.39100
O945        O  0.88948930  0.92344615  0.00166978    -0.39800
O946        O  0.85532327  0.87284053  0.99815649    -0.39900
C947        C  0.59199047  0.11203976  0.43017330    -0.12200
C948        C  0.61336019  0.11273323  0.40761927     0.04800
C949        C  0.60285036  0.13047702  0.37387381    -0.07500
C950        C  0.57286003  0.15005964  0.36465907    -0.08200
C951        C  0.55303217  0.15365197  0.38891023    -0.02800
C952        C  0.56185437  0.13163297  0.42100252     0.04000
N953        N  0.54120327  0.12988435  0.44530241     0.66500
H954        H  0.59929144  0.09756786  0.45582514     0.15400
H955        H  0.56560684  0.16236272  0.33821566     0.15200
N956        N  0.62257870  0.12946185  0.34871598     0.74300
O957        O  0.51531347  0.10799318  0.43797811    -0.39200
O958        O  0.55280112  0.14190892  0.47700527    -0.39100
O959        O  0.61654403  0.10319884  0.32466175    -0.39800
O960        O  0.64136938  0.15864921  0.34636856    -0.39900
C961        C  0.74171411  0.21574511  0.01288791    -0.12200
C962        C  0.73045573  0.17952588  0.02355662     0.04800
C963        C  0.72290334  0.17714876  0.05696323    -0.07500
C964        C  0.72707291  0.21052226  0.07907693    -0.08200
C965        C  0.73843678  0.24682608  0.06855171    -0.02800
C966        C  0.74520555  0.24940382  0.03467258     0.04000
N967        N  0.75411084  0.28627095  0.02122189     0.66500
H968        H  0.74672389  0.21831910  0.98688660     0.15400
H969        H  0.72248527  0.20742393  0.10520251     0.15200
N970        N  0.71249498  0.14063477  0.06965125     0.74300
O971        O  0.78203529  0.29074196  0.01450017    -0.39200
O972        O  0.73196926  0.31103873  0.00958691    -0.39100
O973        O  0.73379340  0.11938412  0.08966921    -0.39800
O974        O  0.68205774  0.13386004  0.06712250    -0.39900
C975        C  0.77454949  0.17985111  0.20463635    -0.12200
C976        C  0.74927377  0.17390726  0.22223476     0.04800
C977        C  0.72332768  0.20092745  0.21633846    -0.07500
C978        C  0.72431299  0.23426811  0.19504946    -0.08200
C979        C  0.75056608  0.24114215  0.17914909    -0.02800
C980        C  0.77531701  0.21277102  0.18319528     0.04000
N981        N  0.80121006  0.21652900  0.16524856     0.66500
H982        H  0.79441830  0.15918258  0.20799541     0.15400
H983        H  0.70485128  0.25503585  0.19159410     0.15200
N984        N  0.69584479  0.19509401  0.23162653     0.74300
O985        O  0.83005763  0.22729800  0.18269898    -0.39200
O986        O  0.79725769  0.20040848  0.13504869    -0.39100
O987        O  0.69301498  0.21730417  0.25671815    -0.39800
O988        O  0.67149892  0.17327768  0.21566789    -0.39900
C989        C  0.49589605  0.30264568  0.41750293    -0.12200
C990        C  0.99330464  0.26443969  0.43021202     0.04800
C991        C  0.99373447  0.25922656  0.46647536    -0.07500
C992        C  0.99658203  0.29220187  0.48909251    -0.08200
C993        C  0.50031619  0.33037125  0.47655200    -0.02800
C994        C  0.49935103  0.33549330  0.44014438     0.04000
N995        N  0.50272879  0.37379348  0.42586063     0.66500
H996        H  0.49725123  0.30713789  0.39034309     0.15400
H997        H  0.99791336  0.28742485  0.01706362     0.15200
N998        N  0.99337702  0.22072614  0.48135786     0.74300
O999        O  0.52934235  0.38390337  0.41803327    -0.39200
O1000       O  0.97742667  0.39486521  0.41588291    -0.39100
O1001       O  0.52046208  0.20691407  0.49917861    -0.39800
O1002       O  0.96650011  0.20633862  0.48573997    -0.39900
C1003       C  0.63047994  0.35368095  0.11232430    -0.12200
C1004       C  0.62490686  0.38233943  0.08543864     0.04800
C1005       C  0.65167515  0.39517167  0.07180663    -0.07500
C1006       C  0.68301604  0.37895030  0.08487552    -0.08200
C1007       C  0.68846073  0.35004789  0.11163140    -0.02800
C1008       C  0.66186356  0.33787665  0.12571252     0.04000
N1009       N  0.66666288  0.31141320  0.15511894     0.66500
H1010       H  0.61045430  0.34404415  0.12374557     0.15400
H1011       H  0.70300125  0.38823826  0.07325914     0.15200
N1012       N  0.64715068  0.42307168  0.04348178     0.74300
O1013       O  0.68289491  0.32340747  0.18562840    -0.39200
O1014       O  0.64865343  0.28040331  0.15244291    -0.39100
O1015       O  0.65678857  0.45849778  0.05034467    -0.39800
O1016       O  0.63950354  0.41096594  0.01153710    -0.39900
C1017       C  0.50213063  0.71952397  0.01711522    -0.12200
C1018       C  0.99810073  0.68165353  0.03022684     0.03200
C1019       C  0.99594867  0.67784869  0.06582884    -0.07500
C1020       C  0.99616867  0.71158424  0.08670276    -0.08200
C1021       C  0.99769747  0.74937681  0.07247865    -0.02800
C1022       C  0.50157363  0.75329989  0.03784056     0.04000
N1023       N  0.50450771  0.79138901  0.02300155     0.66500
H1024       H  0.50401461  0.72299599  0.98990515     0.15400
H1025       H  0.99355959  0.70818905  0.11365987     0.15200
N1026       N  0.99261655  0.63991836  0.58102697     0.74300
O1027       O  0.53279189  0.80803474  0.02778249    -0.39200
O1028       O  0.48010934  0.80500054  0.00022019    -0.39100
O1029       O  0.01826797  0.62350716  0.59906075    -0.39800
O1030       O  0.96436282  0.62692456  0.58259522    -0.39900
C1031       C  0.52856431  0.71292343  0.22858206    -0.12200
C1032       C  0.50188184  0.68782971  0.23084069     0.04800
C1033       C  0.96981175  0.69589093  0.20962176    -0.07500
C1034       C  0.96529717  0.72787958  0.18593366    -0.08200
C1035       C  0.99228751  0.75255090  0.18314348    -0.02800
C1036       C  0.52403616  0.74538261  0.20582733     0.04000
N1037       N  0.55175143  0.77182007  0.20740568     0.66500
H1038       H  0.55320975  0.70793115  0.24543824     0.15400
H1039       H  0.94076734  0.73242095  0.16870073     0.15200
N1040       N  0.94195823  0.67072431  0.21052000     0.74300
O1041       O  0.55236432  0.80541440  0.22152586    -0.39200
O1042       O  0.57808894  0.75893447  0.20186930    -0.39100
O1043       O  0.91982660  0.68302855  0.22435987    -0.39800
O1044       O  0.93683650  0.63903864  0.19260990    -0.39900
C1045       C  0.00153939  0.30079796  0.26515710    -0.12200
C1046       C  0.98349128  0.33344836  0.27047011     0.04800
C1047       C  0.96573289  0.33101624  0.29693091    -0.07500
C1048       C  0.96819093  0.29778115  0.31882179    -0.08200
C1049       C  0.98771133  0.26566811  0.31502734    -0.02800
C1050       C  0.00297131  0.26676563  0.28612809     0.04000
N1051       N  0.51807582  0.23285333  0.27576723     0.66500
H1052       H  0.51389108  0.30105902  0.24368524     0.15400
H1053       H  0.95494134  0.29819956  0.33929439     0.15200
N1054       N  0.94471286  0.36187491  0.30192122     0.74300
O1055       O  0.99992426  0.20341766  0.26221462    -0.39200
O1056       O  0.54781084  0.23525033  0.27376589    -0.39100
O1057       O  0.91382363  0.35857273  0.28818607    -0.39800
O1058       O  0.95600386  0.38854940  0.32489729    -0.39900
C1059       C  0.85532010  0.39710086  0.18358987    -0.12200
C1060       C  0.87672336  0.39522799  0.16117973     0.04800
C1061       C  0.86569700  0.37584638  0.12799584    -0.07500
C1062       C  0.83439015  0.35697292  0.11849549    -0.08200
C1063       C  0.81377874  0.35533769  0.14224809    -0.02800
C1064       C  0.82415988  0.37750251  0.17453550     0.04000
N1065       N  0.80395272  0.37931587  0.19919455     0.66500
H1066       H  0.86342156  0.41222751  0.20909955     0.15400
H1067       H  0.82704979  0.34380267  0.09244827     0.15200
N1068       N  0.88612191  0.37480714  0.10352298     0.74300
O1069       O  0.81220481  0.36052709  0.22809341    -0.39200
O1070       O  0.78361775  0.40668623  0.19642812    -0.39100
O1071       O  0.90218610  0.34433269  0.10142344    -0.39800
O1072       O  0.88347225  0.40105056  0.07995992    -0.39900
C1073       C  0.75790511  0.75939293  0.46861550    -0.12200
C1074       C  0.75554408  0.76771043  0.43258806     0.04800
C1075       C  0.74984019  0.80674022  0.42052552    -0.07500
C1076       C  0.74737257  0.83659370  0.44447359    -0.08200
C1077       C  0.75096777  0.82879001  0.48080608    -0.02800
C1078       C  0.75537180  0.78941115  0.49266987     0.04000
N1079       N  0.75708515  0.77949649  0.02910824     0.66500
H1080       H  0.76165098  0.72938156  0.47809741     0.15400
H1081       H  0.74452397  0.86659247  0.43475884     0.15200
N1082       N  0.74994185  0.81755569  0.38496887     0.74300
O1083       O  0.73065631  0.77521832  0.03902050    -0.39200
O1084       O  0.78413254  0.76849813  0.04927082    -0.39100
O1085       O  0.72408193  0.83138318  0.36470825    -0.39800
O1086       O  0.77746243  0.82359847  0.37769216    -0.39900
C1087       C  0.77627737  0.78251151  0.30870346    -0.12200
C1088       C  0.74883553  0.76199958  0.31591457     0.04800
C1089       C  0.71656853  0.77377990  0.29829061    -0.07500
C1090       C  0.71250311  0.80686440  0.27620995    -0.08200
C1091       C  0.73990276  0.82782357  0.26977748    -0.02800
C1092       C  0.77207394  0.81477120  0.28558689     0.04000
N1093       N  0.80080296  0.83475623  0.27964746     0.66500
H1094       H  0.80136238  0.77473209  0.32221130     0.15400
H1095       H  0.68751182  0.81561844  0.26323592     0.15200
N1096       N  0.68761535  0.75178921  0.30129713     0.74300
O1097       O  0.81758514  0.85834334  0.30305219    -0.39200
O1098       O  0.81286304  0.82312817  0.25486598    -0.39100
O1099       O  0.66501452  0.76892377  0.31122789    -0.39800
O1100       O  0.68188153  0.71763825  0.28778345    -0.39900
C1101       C  0.63370486  0.66298848  0.36532152    -0.12200
C1102       C  0.62577375  0.63241759  0.33968666     0.04800
C1103       C  0.65106264  0.61850880  0.32506369    -0.07500
C1104       C  0.68334231  0.63475368  0.33647259    -0.08200
C1105       C  0.69119891  0.66521037  0.36208501    -0.02800
C1106       C  0.66598656  0.67943732  0.37652035     0.04000
N1107       N  0.67295460  0.70944700  0.40355058     0.66500
H1108       H  0.61474682  0.67425070  0.37691564     0.15400
H1109       H  0.70226067  0.62410503  0.32448721     0.15200
N1110       N  0.64427828  0.58890241  0.29772277     0.74300
O1111       O  0.66133482  0.74329153  0.39636940    -0.39200
O1112       O  0.68478999  0.70004977  0.43572407    -0.39100
O1113       O  0.63785875  0.59905294  0.26539588    -0.39800
O1114       O  0.65069684  0.55345468  0.30587497    -0.39900
C1115       C  0.83687857  0.65137923  0.37063076    -0.12200
C1116       C  0.81621640  0.65526509  0.39400459     0.04800
C1117       C  0.82512172  0.63487900  0.42698003    -0.07500
C1118       C  0.85582392  0.61636041  0.43759288    -0.08200
C1119       C  0.87772762  0.61655659  0.41552834    -0.02800
C1120       C  0.86728074  0.63283910  0.38115652     0.04000
N1121       N  0.88751687  0.63145469  0.35651106     0.66500
H1122       H  0.83024597  0.66243459  0.34393426     0.15400
H1123       H  0.86299867  0.60301919  0.46373786     0.15200
N1124       N  0.80365353  0.63342910  0.45043851     0.74300
O1125       O  0.88440392  0.60250450  0.33534211    -0.39200
O1126       O  0.90403069  0.66182615  0.35174215    -0.39100
O1127       O  0.78046229  0.60760718  0.44530281    -0.39800
O1128       O  0.81221399  0.65139787  0.48005277    -0.39900
C1129       C  0.78591626  0.68186842  0.88510680     0.86600
C1130       C  0.75269651  0.65898266  0.87914237    -0.53700
C1131       C  0.72555413  0.68216481  0.87253765     0.09500
C1132       C  0.73421001  0.72668365  0.87233501     0.20400
C1133       C  0.78159337  0.70774461  0.85135102    -0.54400
C1134       C  0.75464881  0.73122979  0.84460526     0.09600
C1135       C  0.78623385  0.71204868  0.91497022    -0.53900
C1136       C  0.75926456  0.73541826  0.90834500     0.10200
H1137       H  0.75074453  0.62698600  0.87908755     0.14700
H1138       H  0.71253411  0.74583157  0.86762957     0.00400
H1139       H  0.79849694  0.70927446  0.83457594     0.15000
H1140       H  0.80659443  0.71554990  0.93881342     0.14800
In1141     In  0.97472082  0.42962127  0.70191862     1.36900
C1142       C  0.99596130  0.49585415  0.73983985     0.77700
O1143       O  0.96528745  0.39806252  0.74937714    -0.60800
O1144       O  0.49680058  0.37108895  0.72236666    -0.51700
C1145       C  0.91145739  0.40968799  0.67437251     0.70300
O1146       O  0.92022371  0.43858437  0.69570216    -0.46600
C1147       C  0.99805352  0.43362707  0.64358223     0.75000
O1148       O  0.96811654  0.49269659  0.71732673    -0.58400
O1149       O  0.51581669  0.42362676  0.67366308    -0.48500
O1150       O  0.51346953  0.46600396  0.74180063    -0.54800
C1151       C  0.98202807  0.36845367  0.74695938     0.85200
O1152       O  0.93499279  0.39244377  0.66646687    -0.56700
O1153       O  0.96935411  0.44381931  0.64386370    -0.60000
In1154     In  0.52666987  0.59615495  0.80259146     1.36900
C1155       C  0.50681752  0.53139031  0.76229595     0.77700
O1156       O  0.51662069  0.56095708  0.84909301    -0.60800
O1157       O  0.00633856  0.62157428  0.84604425    -0.51700
C1158       C  0.59072768  0.61740097  0.82770204     0.70300
O1159       O  0.58112997  0.58930778  0.80570032    -0.46600
C1160       C  0.50906516  0.65401516  0.75529332     0.75000
O1161       O  0.53513470  0.53506800  0.78396475    -0.58400
O1162       O  0.98896646  0.63885311  0.77151180    -0.48500
O1163       O  0.98851355  0.56031213  0.76179585    -0.54800
C1164       C  0.50718959  0.59026727  0.86344755     0.85200
O1165       O  0.56764565  0.63286599  0.83792475    -0.56700
O1166       O  0.53706917  0.63863769  0.76279400    -0.60000
In1167     In  0.97666499  0.58890349  0.95730437     1.36900
C1168       C  0.99919896  0.52365544  0.99282308     0.77700
O1169       O  0.98875976  0.55726334  0.91061616    -0.60800
O1170       O  0.49833811  0.61920210  0.91643175    -0.51700
C1171       C  0.91219598  0.60345275  0.92972102     0.70300
O1172       O  0.92199572  0.58322258  0.95751611    -0.46600
C1173       C  0.99263957  0.64733665  0.00563380     0.75000
O1174       O  0.96998189  0.52620766  0.97331910    -0.58400
O1175       O  0.50648776  0.64429448  0.98055468    -0.48500
O1176       O  0.51766427  0.55412634  0.99303811    -0.54800
C1177       C  0.99808646  0.58853108  0.89780230     0.85200
O1178       O  0.93499781  0.61403604  0.91576534    -0.56700
O1179       O  0.97219416  0.61976257  0.00699077    -0.60000
In1180     In  0.52895485  0.42203022  0.55023508     1.36900
C1181       C  0.51036568  0.48814021  0.51382264     0.77700
O1182       O  0.52503533  0.39394540  0.49696177    -0.60800
O1183       O  0.00218542  0.36362815  0.53243202    -0.51700
C1184       C  0.59090689  0.39743548  0.57231613     0.70300
O1185       O  0.58419166  0.42943981  0.55552671    -0.46600
C1186       C  0.00896126  0.43143630  0.61037137     0.75000
O1187       O  0.53962861  0.48401098  0.53284617    -0.58400
O1188       O  0.98929037  0.42279675  0.58058586    -0.48500
O1189       O  0.99093559  0.45931467  0.51433558    -0.54800
C1190       C  0.50891261  0.36366244  0.50243772     0.85200
O1191       O  0.56600370  0.37886593  0.57765943    -0.56700
O1192       O  0.53866031  0.43650450  0.60935354    -0.60000
C1193       C  0.78170208  0.32968528  0.63408407     0.86600
C1194       C  0.78053121  0.30077527  0.66428840    -0.53700
C1195       C  0.75216711  0.27780803  0.65845522     0.09500
C1196       C  0.72668823  0.28685713  0.62307487     0.20400
C1197       C  0.77487956  0.30235474  0.60077580    -0.54400
C1198       C  0.74604813  0.28013427  0.59482417     0.09600
C1199       C  0.75041515  0.35385661  0.62864969    -0.53900
C1200       C  0.72157119  0.33184093  0.62284662     0.10200
H1201       H  0.80161379  0.29646142  0.68699966     0.14700
H1202       H  0.70327422  0.26886183  0.61839477     0.00400
H1203       H  0.79258557  0.29676749  0.58564523     0.15000
H1204       H  0.75095467  0.38588188  0.62805686     0.14800
In1205     In  0.71166839  0.08649851  0.95094815     1.36900
C1206       C  0.73544007  0.02374067  0.98917675     0.77700
O1207       O  0.72508245  0.05333045  0.90602042    -0.60800
O1208       O  0.73390531  0.11538043  0.91003689    -0.51700
C1209       C  0.64779264  0.09977609  0.92140067     0.70300
O1210       O  0.65698951  0.07795324  0.94827036    -0.46600
C1211       C  0.72497189  0.14552149  0.99860851     0.75000
O1212       O  0.70614344  0.02449261  0.96953057    -0.58400
O1213       O  0.74092144  0.14125574  0.97533429    -0.48500
O1214       O  0.75295784  0.05454838  0.98831785    -0.54800
C1215       C  0.73460596  0.08411077  0.89266663     0.85200
O1216       O  0.67099198  0.11222882  0.90879421    -0.56700
O1217       O  0.70309581  0.11903782  0.99801523    -0.60000
In1218     In  0.77131278  0.92610168  0.54866599     1.36900
C1219       C  0.74804767  0.98944122  0.51132668     0.77700
O1220       O  0.75240619  0.89794256  0.49474706    -0.60800
O1221       O  0.76289730  0.86014789  0.53922149    -0.51700
C1222       C  0.83680824  0.91763695  0.56816698     0.70300
O1223       O  0.82062211  0.92013479  0.53611892    -0.46600
C1224       C  0.74812872  0.92645938  0.60663832     0.75000
O1225       O  0.77808727  0.98721027  0.52868526    -0.58400
O1226       O  0.75700236  0.95770551  0.59362425    -0.48500
O1227       O  0.72972980  0.95990654  0.51416342    -0.54800
C1228       C  0.75470077  0.86293204  0.50569314     0.85200
O1229       O  0.82008084  0.92423887  0.59014652    -0.56700
O1230       O  0.74915699  0.89562944  0.58886385    -0.60000
C1231       C  0.52315388  0.18080943  0.88090989     0.86600
C1232       C  0.99005121  0.15741166  0.87134668    -0.53700
C1233       C  0.96271960  0.18009279  0.86519596     0.09500
C1234       C  0.97113807  0.22477181  0.86840831     0.20400
C1235       C  0.52078718  0.21039254  0.84999022    -0.54400
C1236       C  0.99318042  0.23293446  0.84236216     0.09600
C1237       C  0.52185514  0.20772929  0.91237833    -0.53900
C1238       C  0.99475520  0.23069611  0.90611449     0.10200
H1239       H  0.98845335  0.12540922  0.86977456     0.14700
H1240       H  0.94885514  0.24274175  0.86348154     0.00400
H1241       H  0.54109704  0.21643646  0.83813448     0.15000
H1242       H  0.54202566  0.21060449  0.93646687     0.14800
In1243     In  0.76649998  0.08705172  0.79958638     1.36900
C1244       C  0.74638376  0.02121253  0.76204380     0.77700
O1245       O  0.75549004  0.05433015  0.84667161    -0.60800
O1246       O  0.74419306  0.11478798  0.84046974    -0.51700
C1247       C  0.83004252  0.10895551  0.82534760     0.70300
O1248       O  0.82126498  0.07806388  0.80678790    -0.46600
C1249       C  0.75290305  0.14133132  0.74839882     0.75000
O1250       O  0.77483588  0.02549059  0.78329447    -0.58400
O1251       O  0.73370515  0.13445554  0.76832863    -0.48500
O1252       O  0.72755108  0.04990676  0.76122001    -0.54800
C1253       C  0.74498818  0.08423902  0.85911884     0.85200
O1254       O  0.80641527  0.12668464  0.83244905    -0.56700
O1255       O  0.77732337  0.11915853  0.75386306    -0.60000
In1256     In  0.71748596  0.92087862  0.69989297     1.36900
C1257       C  0.73624705  0.98576910  0.73962510     0.77700
O1258       O  0.70618957  0.87922129  0.73972538    -0.60800
O1259       O  0.75387795  0.87680432  0.73022516    -0.51700
C1260       C  0.65394751  0.90062154  0.67325509     0.70300
O1261       O  0.66325046  0.92832220  0.69569964    -0.46600
C1262       C  0.73818728  0.92547540  0.64027187     0.75000
O1263       O  0.70798664  0.98149384  0.71804087    -0.58400
O1264       O  0.73875207  0.89432082  0.65799279    -0.48500
O1265       O  0.75526606  0.95736901  0.74020719    -0.54800
C1266       C  0.73352667  0.86234000  0.74627337     0.85200
O1267       O  0.67713196  0.88516947  0.66330016    -0.56700
O1268       O  0.72846448  0.95519612  0.65379465    -0.60000
C1269       C  0.95987797  0.83383951  0.61342486     0.86600
C1270       C  0.96501102  0.80589247  0.58386207    -0.53700
C1271       C  0.99255012  0.78372335  0.59397738     0.09500
C1272       C  0.51251321  0.79127633  0.63241005     0.20400
C1273       C  0.95963436  0.80530197  0.64455299    -0.54400
C1274       C  0.98754219  0.78342356  0.65511201     0.09600
C1275       C  0.99233378  0.85808155  0.62537786    -0.53900
C1276       C  0.51984568  0.83605203  0.63531415     0.10200
H1277       H  0.94693842  0.80078392  0.55846343     0.14700
H1278       H  0.53487768  0.77308833  0.63965195     0.00400
H1279       H  0.93895036  0.80188793  0.65654631     0.15000
H1280       H  0.99342607  0.89007804  0.62446893     0.14800
C1281       C  0.57708268  0.83885088  0.62856157    -0.12200
C1282       C  0.55379827  0.85363098  0.64511563     0.04800
C1283       C  0.56308758  0.88528182  0.66965660    -0.07500
C1284       C  0.59556150  0.90103465  0.67754546    -0.08200
C1285       C  0.61912755  0.88583612  0.66138513    -0.02800
C1286       C  0.60944285  0.85468939  0.63625167     0.04000
N1287       N  0.63203234  0.83872088  0.61818845     0.66500
H1288       H  0.57000332  0.81509865  0.60911540     0.15400
H1289       H  0.60253906  0.92462194  0.69715079     0.15200
N1290       N  0.54034860  0.90073563  0.68785746     0.74300
O1291       O  0.64726613  0.80790186  0.62990285    -0.39200
O1292       O  0.63183645  0.85071399  0.58731919    -0.39100
O1293       O  0.53781983  0.88516511  0.71663347    -0.39800
O1294       O  0.52874542  0.93441928  0.67974561    -0.39900
C1295       C  0.87198414  0.15598818  0.86148641    -0.12200
C1296       C  0.86463829  0.12485793  0.83659790     0.04800
C1297       C  0.88973891  0.11210482  0.82116153    -0.07500
C1298       C  0.92116305  0.13096496  0.83041642    -0.08200
C1299       C  0.92848132  0.16228423  0.85527956    -0.02800
C1300       C  0.90343716  0.17459491  0.87103054     0.04000
N1301       N  0.90984719  0.20387967  0.89861418     0.66500
H1302       H  0.85315524  0.16602859  0.87390124     0.15400
H1303       H  0.93995607  0.12112689  0.81786508     0.15200
N1304       N  0.88359362  0.08080717  0.79539600     0.74300
O1305       O  0.90151562  0.23884922  0.89059099    -0.39200
O1306       O  0.91280351  0.19269517  0.93026868    -0.39100
O1307       O  0.87915086  0.08868714  0.76271479    -0.39800
O1308       O  0.88809949  0.04562212  0.80568081    -0.39900
C1309       C  0.88587570  0.89846214  0.61580114    -0.12200
C1310       C  0.87122916  0.90377237  0.57930869     0.04800
C1311       C  0.88812571  0.89099067  0.55437246    -0.07500
C1312       C  0.91733585  0.87016972  0.56605085    -0.08200
C1313       C  0.92999639  0.86050260  0.60231245    -0.02800
C1314       C  0.91533155  0.87797783  0.62756444     0.04000
N1315       N  0.92978175  0.87534062  0.66519890     0.66500
H1316       H  0.87400004  0.90953249  0.63548663     0.15400
H1317       H  0.92972761  0.86123858  0.54615778     0.15200
N1318       N  0.87540786  0.89738025  0.51692332     0.74300
O1319       O  0.95649813  0.89424783  0.67915105    -0.39200
O1320       O  0.91289687  0.86072738  0.68507173    -0.39100
O1321       O  0.88935308  0.92296466  0.50159267    -0.39800
O1322       O  0.85510821  0.87247349  0.49831430    -0.39900
C1323       C  0.59208133  0.11225320  0.93022586    -0.12200
C1324       C  0.61341050  0.11292524  0.90762804     0.04800
C1325       C  0.60285894  0.13063951  0.87387694    -0.07500
C1326       C  0.57285625  0.15019693  0.86468321    -0.08200
C1327       C  0.55306218  0.15380743  0.88896767    -0.02800
C1328       C  0.56193672  0.13183214  0.92108185     0.04000
N1329       N  0.54132912  0.13010896  0.94542613     0.66500
H1330       H  0.59942151  0.09780902  0.95588814     0.15400
H1331       H  0.56556350  0.16246145  0.83822668     0.15200
N1332       N  0.62254942  0.12959670  0.84868380     0.74300
O1333       O  0.51544239  0.10821220  0.93815815    -0.39200
O1334       O  0.55296367  0.14217134  0.97711178    -0.39100
O1335       O  0.61651923  0.10327834  0.82467911    -0.39800
O1336       O  0.64130369  0.15879397  0.84626170    -0.39900
C1337       C  0.74181617  0.21565438  0.51299384    -0.12200
C1338       C  0.73044216  0.17948651  0.52363618     0.04800
C1339       C  0.72280533  0.17717613  0.55700260    -0.07500
C1340       C  0.72700605  0.21056314  0.57910360    -0.08200
C1341       C  0.73847235  0.24682297  0.56859963    -0.02800
C1342       C  0.74533024  0.24933237  0.53475786     0.04000
N1343       N  0.75435275  0.28615104  0.52131807     0.66500
H1344       H  0.74689686  0.21817785  0.48702273     0.15400
H1345       H  0.72235393  0.20750532  0.60520265     0.15200
N1346       N  0.71227019  0.14071380  0.56966327     0.74300
O1347       O  0.78230796  0.29050357  0.51464715    -0.39200
O1348       O  0.73228613  0.31099600  0.50964474    -0.39100
O1349       O  0.73347595  0.11941971  0.58975789    -0.39800
O1350       O  0.68180219  0.13404082  0.56702933    -0.39900
C1351       C  0.77455658  0.17986848  0.70456879    -0.12200
C1352       C  0.74925484  0.17386167  0.72212119     0.04800
C1353       C  0.72329288  0.20086016  0.71622516    -0.07500
C1354       C  0.72429230  0.23424804  0.69499544    -0.08200
C1355       C  0.75057186  0.24118534  0.67914623    -0.02800
C1356       C  0.77533359  0.21282922  0.68317754     0.04000
N1357       N  0.80123958  0.21663642  0.66525311     0.66500
H1358       H  0.79443590  0.15921486  0.70792314     0.15400
H1359       H  0.70481300  0.25499663  0.69153595     0.15200
N1360       N  0.69577061  0.19494368  0.73143771     0.74300
O1361       O  0.83009038  0.22734912  0.68273788    -0.39200
O1362       O  0.79728333  0.20062261  0.63500793    -0.39100
O1363       O  0.69287547  0.21708596  0.75654645    -0.39800
O1364       O  0.67145948  0.17312088  0.71540326    -0.39900
C1365       C  0.49589104  0.30277939  0.91752628    -0.12200
C1366       C  0.99331391  0.26430350  0.93018305     0.04800
C1367       C  0.99377325  0.25908072  0.96645397    -0.07500
C1368       C  0.99662923  0.29204998  0.98908046    -0.08200
C1369       C  0.50029060  0.33051386  0.97656578    -0.02800
C1370       C  0.49933771  0.33563050  0.94016109     0.04000
N1371       N  0.50272038  0.37392839  0.92587504     0.66500
H1372       H  0.49726084  0.30726485  0.89036999     0.15400
H1373       H  0.99785499  0.28758466  0.51707425     0.15200
N1374       N  0.99343958  0.22057719  0.98133511     0.74300
O1375       O  0.52932476  0.38402113  0.91802015    -0.39200
O1376       O  0.97747746  0.39468671  0.91575999    -0.39100
O1377       O  0.52038614  0.20702561  0.99917568    -0.39800
O1378       O  0.96656796  0.20615831  0.98570399    -0.39900
C1379       C  0.63051442  0.35374607  0.61238202    -0.12200
C1380       C  0.62490071  0.38231157  0.58541586     0.04800
C1381       C  0.65163886  0.39508496  0.57170894    -0.07500
C1382       C  0.68299327  0.37890130  0.58479075    -0.08200
C1383       C  0.68847614  0.35008836  0.61162401    -0.02800
C1384       C  0.66191021  0.33797566  0.62577894     0.04000
N1385       N  0.66675155  0.31159643  0.65525168     0.66500
H1386       H  0.61051105  0.34415873  0.62385720     0.15400
H1387       H  0.70295696  0.38813758  0.57312175     0.15200
N1388       N  0.64706578  0.42287005  0.54328983     0.74300
O1389       O  0.68317121  0.32359732  0.68568610    -0.39200
O1390       O  0.64865472  0.28067527  0.65273182    -0.39100
O1391       O  0.65672620  0.45830936  0.55002110    -0.39800
O1392       O  0.63935134  0.41063771  0.51138306    -0.39900
C1393       C  0.50180665  0.71953887  0.51678783    -0.12200
C1394       C  0.99816439  0.68166625  0.53042014     0.03200
C1395       C  0.99574022  0.67782854  0.56592827    -0.07500
C1396       C  0.99596679  0.71154005  0.58683399    -0.08200
C1397       C  0.99778222  0.74934355  0.57273222    -0.02800
C1398       C  0.50124136  0.75333714  0.53748046     0.04000
N1399       N  0.50387271  0.79141050  0.52248984     0.66500
H1400       H  0.50347178  0.72297915  0.48949951     0.15400
H1401       H  0.99313972  0.70813099  0.61370736     0.15200
N1402       N  0.99311129  0.63994567  0.08105889     0.74300
O1403       O  0.53205651  0.80824430  0.52700758    -0.39200
O1404       O  0.47930055  0.80479044  0.49979230    -0.39100
O1405       O  0.01892133  0.62370311  0.09892811    -0.39800
O1406       O  0.96498432  0.62679986  0.08291555    -0.39900
C1407       C  0.52857805  0.71293290  0.72836699    -0.12200
C1408       C  0.50188774  0.68785227  0.73062746     0.04800
C1409       C  0.96979620  0.69594553  0.70985924    -0.07500
C1410       C  0.96527742  0.72793780  0.68617314    -0.08200
C1411       C  0.99226850  0.75260448  0.68337365    -0.02800
C1412       C  0.52406049  0.74538516  0.70560099     0.04000
N1413       N  0.55178121  0.77181290  0.70718186     0.66500
H1414       H  0.55321892  0.70794040  0.74523392     0.15400
H1415       H  0.94074657  0.73247769  0.66894211     0.15200
N1416       N  0.94194280  0.67078278  0.71076823     0.74300
O1417       O  0.55245728  0.80534504  0.72143291    -0.39200
O1418       O  0.57808859  0.75893029  0.70156780    -0.39100
O1419       O  0.91981403  0.68309491  0.72460860    -0.39800
O1420       O  0.93682046  0.63908749  0.69287223    -0.39900
C1421       C  0.00157754  0.30076281  0.76514251    -0.12200
C1422       C  0.98350959  0.33339829  0.77044654     0.04800
C1423       C  0.96573766  0.33094619  0.79689463    -0.07500
C1424       C  0.96820181  0.29770728  0.81878272    -0.08200
C1425       C  0.98774053  0.26560800  0.81499708    -0.02800
C1426       C  0.00301651  0.26672658  0.78610983     0.04000
N1427       N  0.51804582  0.23291689  0.77579725     0.66500
H1428       H  0.51386984  0.30111701  0.74370272     0.15400
H1429       H  0.95494156  0.29811217  0.83924632     0.15200
N1430       N  0.94469532  0.36178621  0.80187247     0.74300
O1431       O  0.00000919  0.20340228  0.76215770    -0.39200
O1432       O  0.54777538  0.23530461  0.77377634    -0.39100
O1433       O  0.91380259  0.35843015  0.78817656    -0.39800
O1434       O  0.95598093  0.38850702  0.82480316    -0.39900
C1435       C  0.85533752  0.39716515  0.68357423    -0.12200
C1436       C  0.87674772  0.39525781  0.66117372     0.04800
C1437       C  0.86571918  0.37586150  0.62799650    -0.07500
C1438       C  0.83440784  0.35699931  0.61850109    -0.08200
C1439       C  0.81379475  0.35538492  0.64225253    -0.02800
C1440       C  0.82417247  0.37757732  0.67452391     0.04000
N1441       N  0.80395336  0.37943673  0.69916749     0.66500
H1442       H  0.86343668  0.41231141  0.70907508     0.15400
H1443       H  0.82706374  0.34381863  0.59245458     0.15200
N1444       N  0.88614623  0.37479412  0.60352703     0.74300
O1445       O  0.81218581  0.36067233  0.72808108    -0.39200
O1446       O  0.78363302  0.40682703  0.69637229    -0.39100
O1447       O  0.90222734  0.34432232  0.60146947    -0.39800
O1448       O  0.88346573  0.40098684  0.57991555    -0.39900
C1449       C  0.75784385  0.75941926  0.96887286    -0.12200
C1450       C  0.75560284  0.76768494  0.93285909     0.04800
C1451       C  0.75002633  0.80671866  0.92076021    -0.07500
C1452       C  0.74754048  0.83662162  0.94464995    -0.08200
C1453       C  0.75100328  0.82887010  0.98096734    -0.02800
C1454       C  0.75529377  0.78949411  0.99287358     0.04000
N1455       N  0.75732620  0.77935482  0.52892534     0.66500
H1456       H  0.76148870  0.72940591  0.97837842     0.15400
H1457       H  0.74479092  0.86661566  0.93490758     0.15200
N1458       N  0.75028334  0.81747879  0.88523416     0.74300
O1459       O  0.73096304  0.77471689  0.53890761    -0.39200
O1460       O  0.78449484  0.76861526  0.54902306    -0.39100
O1461       O  0.72454903  0.83151632  0.86491985    -0.39800
O1462       O  0.77787252  0.82325894  0.87804656    -0.39900
C1463       C  0.77622867  0.78234847  0.80889202    -0.12200
C1464       C  0.74878225  0.76191597  0.81617593     0.04800
C1465       C  0.71652082  0.77375622  0.79859070    -0.07500
C1466       C  0.71247416  0.80680197  0.77646003    -0.08200
C1467       C  0.73988100  0.82767573  0.76995015    -0.02800
C1468       C  0.77204078  0.81457930  0.78574246     0.04000
N1469       N  0.80077886  0.83449712  0.77975706     0.66500
H1470       H  0.80131188  0.77453866  0.82237441     0.15400
H1471       H  0.68748797  0.81559454  0.76351209     0.15200
N1472       N  0.68754864  0.75187305  0.80169359     0.74300
O1473       O  0.81749830  0.85825102  0.80304540    -0.39200
O1474       O  0.81290785  0.82267424  0.75509238    -0.39100
O1475       O  0.66501010  0.76911672  0.81164462    -0.39800
O1476       O  0.68173589  0.71769270  0.78825782    -0.39900
C1477       C  0.63355916  0.66313236  0.86534083    -0.12200
C1478       C  0.62567517  0.63248183  0.83978312     0.04800
C1479       C  0.65101947  0.61844808  0.82531641    -0.07500
C1480       C  0.68330273  0.63466432  0.83678824    -0.08200
C1481       C  0.69111882  0.66519736  0.86233066    -0.02800
C1482       C  0.66585069  0.67953798  0.87661965     0.04000
N1483       N  0.67276353  0.70962178  0.90358223     0.66500
H1484       H  0.61455711  0.67448468  0.87681909     0.15400
H1485       H  0.70225828  0.62392634  0.82490382     0.15200
N1486       N  0.64429246  0.58873515  0.79807115     0.74300
O1487       O  0.66108942  0.74342831  0.89631891    -0.39200
O1488       O  0.68459596  0.70031844  0.93578053    -0.39100
O1489       O  0.63805649  0.59875328  0.76571843    -0.39800
O1490       O  0.65057761  0.55329206  0.80636843    -0.39900
C1491       C  0.83673745  0.65119384  0.87078346    -0.12200
C1492       C  0.81612164  0.65510707  0.89420346     0.04800
C1493       C  0.82503454  0.63467503  0.92715070    -0.07500
C1494       C  0.85572739  0.61612632  0.93771937    -0.08200
C1495       C  0.87760193  0.61631104  0.91561843    -0.02800
C1496       C  0.86711985  0.63260239  0.88125219     0.04000
N1497       N  0.88730020  0.63118948  0.85655235     0.66500
H1498       H  0.83008402  0.66225051  0.84409860     0.15400
H1499       H  0.86291006  0.60275420  0.96384884     0.15200
N1500       N  0.80355928  0.63315367  0.95059871     0.74300
O1501       O  0.88407751  0.60227721  0.83532586    -0.39200
O1502       O  0.90385642  0.66152648  0.85178854    -0.39100
O1503       O  0.78047564  0.60719633  0.94551411    -0.39800
O1504       O  0.81204321  0.65120185  0.98017616    -0.39900
loop_ 
_geom_bond_atom_site_label_1 
_geom_bond_atom_site_label_2 
_geom_bond_distance 
_geom_bond_site_symmetry_2 
_ccdc_geom_bond_type 
C1            C2   1.532       .  S
C1            C7   1.543       .  S
C1            C5   1.550       .  S
C1          C364   1.540       .  S
C2            H9   1.086       .  S
C2            C3   1.367       .  D
C3            C4   1.542       .  S
C3          C353   1.486       .  S
C4            C8   1.535       .  S
C4            C6   1.540       .  S
C4           H10   1.105       .  S
C5           H11   1.076       .  S
C5            C6   1.366       .  D
C6          C336   1.494       .  S
C7           H12   1.086       .  S
C7            C8   1.365       .  D
C8          C322   1.486       .  S
In13         O15   2.243       .  S
In13         O24   2.219       .  S
In13         O18   2.253       .  S
In13         O20   2.264       .  S
In13         O25   2.257       .  S
In13        O768   2.271       .  S
In13        O773   2.274       .  S
In13        O774   2.262       .  S
C14          O20   1.261       .  A
C14         O774   1.260       .  A
C14         C779   1.475       .  S
O15          C23   1.257       .  A
O16        In765   2.271       .  S
O16         C775   1.263       .  A
C17          O24   1.260       .  A
C17          O18   1.265       .  A
C17         C308   1.474       .  S
C19          O25   1.258       .  A
C19         O773   1.263       .  A
C19          C58   1.474       .  S
O21        In765   2.274   1_455  S
O21         C771   1.263   1_455  A
O22        In765   2.262   1_455  S
O22         C766   1.260   1_455  A
C23         O768   1.263       .  A
C23         C294   1.490       .  S
In26         O28   2.282       .  S
In26         O37   2.239       .  S
In26         O31   2.262       .  S
In26         O33   2.261       .  S
In26         O38   2.225       .  S
In26        O781   2.255       .  S
In26        O786   2.280   1_455  S
In26        O787   2.259   1_455  S
C27          O33   1.263       .  A
C27         O787   1.262   1_455  A
C27         C766   1.475   1_455  S
O28          C36   1.260       .  A
O29        In778   2.254       .  S
O29         C788   1.259       .  A
C30          O37   1.259       .  A
C30          O31   1.264       .  A
C30         C350   1.486       .  S
C32          O38   1.257       .  A
C32         O786   1.264   1_455  A
C32         C280   1.481       .  S
O34        In778   2.280       .  S
O34         C784   1.264       .  A
O35        In778   2.259       .  S
O35         C779   1.261       .  A
C36         O781   1.259       .  A
C36         C801   1.475   1_455  S
In39         O41   2.277       .  S
In39         O50   2.232       .  S
In39         O44   2.284       .  S
In39         O46   2.244       .  S
In39         O51   2.244       .  S
In39        O794   2.247       .  S
In39        O799   2.267       .  S
In39        O800   2.266       .  S
C40          O46   1.263       .  A
C40         O800   1.263       .  A
C40        C1181   1.473       .  S
O41          C49   1.264       .  A
O42        In791   2.247       .  S
O42         C801   1.261       .  A
C43          O50   1.253       .  A
C43          O44   1.260       .  A
C43         C367   1.483       .  S
C45          O51   1.257       .  A
C45         O799   1.261       .  A
C45         C642   1.479       .  S
O47        In791   2.267   1_455  S
O47         C797   1.261   1_455  A
O48        In791   2.266   1_455  S
O48         C792   1.263   1_455  A
C49         O794   1.261       .  A
C49         C788   1.475       .  S
In52         O54   2.239   1_554  S
In52         O63   2.224       .  S
In52         O57   2.266       .  S
In52         O59   2.274       .  S
In52         O64   2.273       .  S
In52        O807   2.266       .  S
In52        O812   2.265   1_455  S
In52        O813   2.241   1_455  S
C53          O59   1.264       .  A
C53         O813   1.259   1_455  A
C53        C1168   1.473   1_454  S
O54          C62   1.259   1_556  A
O55        In804   2.266       .  S
O55         C814   1.263       .  A
C56          O63   1.261       .  A
C56          O57   1.266       .  A
C56         C252   1.484       .  S
C58          O60   1.261       .  A
C58         O816   1.258       .  A
O60        In804   2.265       .  S
O61        In804   2.242       .  S
O61         C805   1.259       .  A
C62         O807   1.263       .  A
C62         C617   1.483   1_554  S
O64         C810   1.258       .  A
C65          C66   1.536       .  S
C65          C71   1.530       .  S
C65          C69   1.550       .  S
C65         C311   1.537       .  S
C66          H73   1.085       .  S
C66          C67   1.365       .  D
C67          C68   1.540       .  S
C67         C227   1.487       .  S
C68          C72   1.546       .  S
C68          C70   1.540       .  S
C68          H74   1.110       .  S
C69          H75   1.076       .  S
C69          C70   1.367       .  D
C70         C213   1.491       .  S
C71          H76   1.086       .  S
C71          C72   1.365       .  D
C72         C255   1.489       .  S
In77         O79   2.270       .  S
In77         O80   2.245       .  S
In77         O88   2.228       .  S
In77         O82   2.266       .  S
In77         O84   2.247       .  S
In77         O85   2.259       .  S
In77         O86   2.249       .  S
In77         O89   2.244       .  S
C78          O84   1.263       .  A
C78          O86   1.262       .  A
C78         C467   1.469   1_545  S
O79          C87   1.263       .  A
O80          C87   1.261       .  A
C81          O88   1.254       .  A
C81          O82   1.261       .  A
C81         C196   1.477       .  S
C83          O85   1.262       .  A
C83          O89   1.257       .  A
C83         C586   1.479       .  S
C87         C125   1.473       .  S
In90         O92   2.238   1_554  S
In90         O93   2.269       .  S
In90        O101   2.246       .  S
In90         O95   2.246       .  S
In90         O97   2.247       .  S
In90         O98   2.262       .  S
In90         O99   2.243       .  S
In90        O102   2.244       .  S
C91          O97   1.264       .  A
C91          O99   1.264       .  A
C91         C454   1.469   1_564  S
O92         C100   1.259   1_556  A
O93         C100   1.260       .  A
C94         O101   1.256       .  A
C94          O95   1.256       .  A
C94         C182   1.479       .  S
C96          O98   1.260       .  A
C96         O102   1.260       .  A
C96         C134   1.467       .  S
C100        C701   1.486   1_554  S
C103        C109   1.537       .  S
C103        C107   1.548       .  S
C103        C856   1.528   1_455  S
C103        C199   1.536       .  S
C104        C855   1.528       .  S
C104        H111   1.086       .  S
C104        C105   1.363       .  D
C105        C106   1.543       .  S
C105        C171   1.489       .  S
C106        C110   1.547       .  S
C106        C108   1.551       .  S
C106        H112   1.101       .  S
C107        H113   1.078       .  S
C107        C860   1.370   1_455  D
C108        C859   1.370       .  D
C108        C297   1.515       .  S
C109        H114   1.086       .  S
C109        C862   1.363   1_455  D
C110        C861   1.363       .  D
C110        C238   1.485       .  S
In115       O117   2.275       .  S
In115       O118   2.253       .  S
In115       O126   2.230       .  S
In115       O120   2.258       .  S
In115       O122   2.244       .  S
In115       O123   2.280       .  S
In115       O124   2.252       .  S
In115       O127   2.217       .  S
C116        O122   1.262       .  A
C116        O124   1.264       .  A
C116        C129   1.469   1_545  S
O117        C125   1.260       .  A
O118        C125   1.259       .  A
C119        O126   1.258       .  A
C119        O120   1.261       .  A
C119        C168   1.480       .  S
C121        O123   1.265       .  A
C121        O127   1.257       .  A
C121        C224   1.486       .  S
In128       O130   2.222       .  S
In128       O131   2.265       .  S
In128       O139   2.227       .  S
In128       O133   2.247       .  S
In128       O135   2.252       .  S
In128       O136   2.242       .  S
In128       O137   2.252       .  S
In128       O140   2.269       .  S
C129        O135   1.261       .  A
C129        O137   1.262       .  A
O130        C138   1.257       .  A
O131        C138   1.263       .  A
C132        O139   1.257       .  A
C132        O133   1.263       .  A
C132        C157   1.478       .  S
C134        O136   1.258       .  A
C134        O140   1.261       .  A
C138        C339   1.479       .  S
C141        C142   1.548       .  S
C141        C147   1.527       .  S
C141        C145   1.548       .  S
C141        C185   1.531       .  S
C142        H149   1.085       .  S
C142        C143   1.363       .  D
C143        C896   1.531       .  S
C143        C269   1.481       .  S
C144        C148   1.538       .  S
C144        C895   1.531   1_455  S
C144        C898   1.539   1_455  S
C144        H150   1.108       .  S
C145        H151   1.084       .  S
C145        C146   1.370       .  D
C146        C896   1.539       .  S
C146        C283   1.494       .  S
C147        H152   1.086       .  S
C147        C900   1.360       .  D
C148        C899   1.360   1_455  D
C148        C154   1.475       .  S
C153        C154   1.399       .  A
C153        C158   1.396       .  A
C153        H160   1.084       .  S
C154        C155   1.412       .  A
C155        C156   1.399       .  A
C155        N162   1.430       .  S
C156        C157   1.404       .  A
C156        H161   1.084       .  S
C157        C158   1.414       .  A
C158        N159   1.429       .  S
N159        O163   1.262       .  A
N159        O164   1.262       .  A
N162        O166   1.262       .  A
N162        O165   1.261       .  A
C167        C168   1.403       .  A
C167        C172   1.399       .  A
C167        H174   1.084       .  S
C168        C169   1.411       .  A
C169        C170   1.401       .  A
C169        N176   1.429       .  S
C170        C171   1.407       .  A
C170        H175   1.084       .  S
C171        C172   1.412       .  A
C172        N173   1.428       .  S
N173        O177   1.262       .  A
N173        O178   1.261       .  A
N176        O180   1.262       .  A
N176        O179   1.262       .  A
C181        C182   1.402       .  A
C181        C186   1.400       .  A
C181        H188   1.084       .  S
C182        C183   1.410       .  A
C183        C184   1.398       .  A
C183        N190   1.430       .  S
C184        C185   1.410       .  A
C184        H189   1.081       .  S
C185        C186   1.419       .  A
C186        N187   1.431       .  S
N187        O191   1.262       .  A
N187        O192   1.262       .  A
N190        O194   1.262   1_554  A
N190        O193   1.262       .  A
C195        C196   1.400       .  A
C195        C200   1.402       .  A
C195        H202   1.084       .  S
C196        C197   1.409       .  A
C197        C198   1.397       .  A
C197        N204   1.430       .  S
C198        C199   1.410       .  A
C198        H203   1.079       .  S
C199        C200   1.421       .  A
C200        N201   1.431       .  S
N201        O205   1.262       .  A
N201        O206   1.262       .  A
N204        O208   1.262       .  A
N204        O207   1.262       .  A
C209        C210   1.402       .  A
C209        C214   1.401       .  A
C209        H216   1.084   1_554  S
C210        C459   1.479   1_554  S
C210        C211   1.411       .  A
C211        C212   1.399       .  A
C211        N218   1.429       .  S
C212        C213   1.404       .  A
C212        H217   1.083       .  S
C213        C214   1.415       .  A
C214        N215   1.430       .  S
N215        O219   1.262       .  A
N215        O220   1.262       .  A
N218        O222   1.262       .  A
N218        O221   1.262       .  A
C223        C224   1.405       .  A
C223        C228   1.396       .  A
C223        H230   1.083       .  S
C224        C225   1.412       .  A
C225        C226   1.405       .  A
C225        N232   1.429       .  S
C226        C227   1.402       .  A
C226        H231   1.073       .  S
C227        C228   1.411       .  A
C228        N229   1.430       .  S
N229        O233   1.262       .  A
N229        O234   1.262       .  A
N232        O236   1.262       .  A
N232        O235   1.262       .  A
C237        C242   1.399       .  A
C237        C990   1.400       .  A
C237        H244   1.079       .  S
C238        C239   1.412       .  A
C238        C989   1.400       .  A
C239        C240   1.404       .  A
C239        N246   1.428       .  S
C240        C993   1.404       .  A
C240        H621   1.084       .  S
C241        C438   1.483       .  S
C241        C242   1.412   1_455  A
C241        C992   1.404   1_455  A
C242        N243   1.429   1_655  S
N243        O247   1.262       .  A
N243       O1000   1.262   1_455  A
H245        C616   1.084   1_554  S
N246        O250   1.261       .  A
N246       O1001   1.261       .  A
O248        N995   1.262       .  A
O249        N998   1.261   1_455  A
C251        C252   1.404       .  A
C251        C256   1.400       .  A
C251        H258   1.084       .  S
C252        C253   1.411       .  A
C253        C254   1.403       .  A
C253        N260   1.428       .  S
C254        C255   1.407       .  A
C254        H259   1.084       .  S
C255        C256   1.408       .  A
C256        N257   1.427       .  S
N257        O261   1.262       .  A
N257        O262   1.262       .  A
N260        O264   1.262       .  A
N260        O263   1.262       .  A
C265        C270   1.403       .  A
C265       C1018   1.405   1_455  A
C265        H272   1.084   1_554  S
C266        C421   1.479       .  S
C266        C267   1.412       .  A
C266       C1017   1.405       .  A
C267        C268   1.400       .  A
C267        N650   1.429       .  S
C268        C269   1.401       .  A
C268        H273   1.084       .  S
C269       C1022   1.409       .  A
C270       C1021   1.409   1_455  A
C270        N271   1.429       .  S
N271        O275   1.262       .  A
N271        O276   1.262   1_454  A
N274        C643   1.429       .  S
N274        O278   1.262       .  A
N274        O277   1.262       .  A
C279        C280   1.401       .  A
C279        C284   1.397       .  A
C279        H286   1.084       .  S
C280       C1033   1.410   1_455  A
C281        C282   1.406       .  A
C281       C1032   1.410       .  A
C281        N288   1.429       .  S
C282        C283   1.409       .  A
C282        H287   1.083       .  S
C283       C1036   1.413       .  A
C284       C1035   1.413   1_455  A
C284        N285   1.430       .  S
N285        O289   1.261       .  A
N285        O290   1.262       .  A
N288        O292   1.262       .  A
N288        O291   1.262       .  A
C293        C294   1.401       .  A
C293        C298   1.405       .  A
C293       H1052   1.084       .  S
C294        C295   1.413       .  A
C295        C296   1.401       .  A
C295        N302   1.429       .  S
C296        C297   1.409       .  A
C296        H301   1.078       .  S
C297        C298   1.424       .  A
C298       N1051   1.430       .  S
N299       C1050   1.430       .  S
N299       O1055   1.262   1_455  A
N299        O304   1.262       .  A
H300       C1045   1.084       .  S
N302        O306   1.262       .  A
N302        O305   1.262       .  A
O303       N1051   1.262       .  A
C307        C308   1.400       .  A
C307        C312   1.403       .  A
C307        H314   1.083       .  S
C308        C309   1.405       .  A
C309        C310   1.397       .  A
C309        N316   1.430       .  S
C310        C311   1.412       .  A
C310        H315   1.070       .  S
C311        C312   1.421       .  A
C312        N313   1.430       .  S
N313        O317   1.262       .  A
N313        O318   1.262       .  A
N316        O320   1.262       .  A
N316        O319   1.262       .  A
C321        C322   1.404       .  A
C321        C326   1.405       .  A
C321        H328   1.084       .  S
C322        C323   1.410       .  A
C323        C324   1.397       .  A
C323        N330   1.427       .  S
C324        C325   1.403       .  A
C324        H329   1.084       .  S
C325        C476   1.486       .  S
C325        C326   1.414       .  A
C326        N703   1.428       .  S
N327        C702   1.428   1_554  S
N327        O331   1.262       .  A
N327        O332   1.262       .  A
N330        O334   1.262       .  A
N330        O333   1.262       .  A
C335        C336   1.410       .  A
C335        C340   1.400       .  A
C335        H342   1.082       .  S
C336        C337   1.412       .  A
C337        C338   1.399       .  A
C337        N344   1.431       .  S
C338        C339   1.404       .  A
C338        H343   1.084       .  S
C339        C340   1.408       .  A
C340        N341   1.429       .  S
N341        O345   1.262       .  A
N341        O346   1.262       .  A
N344        O348   1.262       .  A
N344        O347   1.262       .  A
C349        C350   1.408       .  A
C349        C354   1.402       .  A
C349        H356   1.084       .  S
C350        C351   1.412       .  A
C351        C352   1.400       .  A
C351        N358   1.428       .  S
C352        C353   1.404       .  A
C352        H357   1.084       .  S
C353        C354   1.409       .  A
C354        N355   1.430       .  S
N355        O359   1.262       .  A
N355        O360   1.262       .  A
N358        O362   1.262       .  A
N358        O361   1.262       .  A
C363        C364   1.411       .  A
C363        C368   1.396       .  A
C363        H370   1.070       .  S
C364        C365   1.421       .  A
C365        C366   1.407       .  A
C365        N372   1.431       .  S
C366        C367   1.403       .  A
C366        H371   1.083       .  S
C367        C368   1.409       .  A
C368        N369   1.430       .  S
N369        O373   1.262       .  A
N369        O374   1.262       .  A
N372        O376   1.262       .  A
N372        O375   1.262       .  A
C377        C378   1.532       .  S
C377        C383   1.542       .  S
C377        C381   1.550       .  S
C377        C740   1.540       .  S
C378        H385   1.086       .  S
C378        C379   1.367       .  D
C379        C380   1.542       .  S
C379        C729   1.486       .  S
C380        C384   1.535       .  S
C380        C382   1.540       .  S
C380        H386   1.105       .  S
C381        H387   1.076       .  S
C381        C382   1.366       .  D
C382        C712   1.494       .  S
C383        H388   1.086       .  S
C383        C384   1.365       .  D
C384        C698   1.486       .  S
In389       O391   2.243       .  S
In389      O1144   2.271       .  S
In389       O400   2.219       .  S
In389       O394   2.253       .  S
In389       O396   2.265       .  S
In389      O1149   2.274       .  S
In389      O1150   2.262       .  S
In389       O401   2.257       .  S
C390        O396   1.261       .  A
C390       O1150   1.260       .  A
C390       C1155   1.475       .  S
O391        C399   1.257       .  A
O392      In1141   2.271       .  S
O392       C1151   1.263       .  A
C393        O400   1.260       .  A
C393        O394   1.265       .  A
C393        C684   1.474       .  S
C395       O1149   1.263       .  A
C395        O401   1.258       .  A
C395        C434   1.474       .  S
O397      In1141   2.274   1_455  S
O397       C1147   1.263   1_455  A
O398      In1141   2.262   1_455  S
O398       C1142   1.260   1_455  A
C399       O1144   1.263       .  A
C399        C670   1.490       .  S
In402       O404   2.282       .  S
In402      O1157   2.254       .  S
In402       O413   2.239       .  S
In402       O407   2.262       .  S
In402       O409   2.261       .  S
In402      O1162   2.280   1_455  S
In402      O1163   2.259   1_455  S
In402       O414   2.225       .  S
C403        O409   1.263       .  A
C403       O1163   1.261   1_455  A
C403       C1142   1.475   1_455  S
O404        C412   1.260       .  A
O405      In1154   2.255       .  S
O405       C1164   1.259       .  A
C406        O413   1.259       .  A
C406        O407   1.264       .  A
C406        C726   1.486       .  S
C408       O1162   1.264   1_455  A
C408        O414   1.257       .  A
C408        C656   1.481       .  S
O410      In1154   2.280       .  S
O410       C1160   1.264       .  A
O411      In1154   2.259       .  S
O411       C1155   1.262       .  A
C412       O1157   1.259       .  A
C412       C1177   1.475   1_455  S
In415       O417   2.277       .  S
In415      O1170   2.247       .  S
In415       O426   2.232       .  S
In415       O420   2.284       .  S
In415       O422   2.244       .  S
In415      O1175   2.267       .  S
In415      O1176   2.266       .  S
In415       O427   2.244   1_556  S
C416        O422   1.263       .  A
C416       O1176   1.263       .  A
C416        C805   1.473   1_556  S
O417        C425   1.264       .  A
O418      In1167   2.247       .  S
O418       C1177   1.261       .  A
C419        O426   1.253       .  A
C419        O420   1.260       .  A
C419        C743   1.483       .  S
C421       O1175   1.261   1_554  A
C421        O427   1.257       .  A
O423      In1167   2.267   1_455  S
O423       C1173   1.261   1_456  A
O424      In1167   2.266   1_455  S
O424       C1168   1.263   1_455  A
C425       O1170   1.261       .  A
C425       C1164   1.475       .  S
In428       O430   2.239       .  S
In428      O1183   2.266       .  S
In428       O439   2.224       .  S
In428       O433   2.266       .  S
In428       O435   2.274       .  S
In428      O1188   2.265   1_455  S
In428      O1189   2.242   1_455  S
In428       O440   2.273       .  S
C429        O435   1.264       .  A
C429       O1189   1.259   1_455  A
C429        C792   1.473   1_455  S
O430        C438   1.259       .  A
O431      In1180   2.266       .  S
O431       C1190   1.263       .  A
C432        O439   1.261       .  A
C432        O433   1.266       .  A
C432        C628   1.484       .  S
C434        O436   1.261       .  A
C434       O1192   1.258       .  A
O436      In1180   2.265       .  S
O437      In1180   2.241       .  S
O437       C1181   1.259       .  A
C438       O1183   1.263       .  A
O440       C1186   1.258       .  A
C441        C442   1.536       .  S
C441        C447   1.530       .  S
C441        C445   1.550       .  S
C441        C687   1.537       .  S
C442        H449   1.085       .  S
C442        C443   1.365       .  D
C443        C444   1.540       .  S
C443        C603   1.487       .  S
C444        C448   1.546       .  S
C444        C446   1.539       .  S
C444        H450   1.110       .  S
C445        H451   1.076       .  S
C445        C446   1.367       .  D
C446        C589   1.491       .  S
C447        H452   1.086       .  S
C447        C448   1.365       .  D
C448        C631   1.489       .  S
In453       O455   2.270       .  S
In453       O456   2.245       .  S
In453       O464   2.228       .  S
In453       O458   2.266       .  S
In453       O460   2.247       .  S
In453       O461   2.259       .  S
In453       O462   2.249       .  S
In453       O465   2.244       .  S
C454        O460   1.263       .  A
C454        O462   1.262       .  A
O455        C463   1.264       .  A
O456        C463   1.261       .  A
C457        O464   1.254       .  A
C457        O458   1.261       .  A
C457        C572   1.477       .  S
C459        O461   1.262       .  A
C459        O465   1.257       .  A
C463        C501   1.473       .  S
In466       O468   2.238       .  S
In466       O469   2.269       .  S
In466       O477   2.247       .  S
In466       O471   2.246       .  S
In466       O473   2.248       .  S
In466       O474   2.263       .  S
In466       O475   2.242       .  S
In466       O478   2.244       .  S
C467        O473   1.264       .  A
C467        O475   1.264       .  A
O468        C476   1.259       .  A
O469        C476   1.260       .  A
C470        O477   1.256       .  A
C470        O471   1.256       .  A
C470        C558   1.479       .  S
C472        O474   1.260       .  A
C472        O478   1.260       .  A
C472        C510   1.467       .  S
C479       C1232   1.528   1_455  S
C479        C485   1.537       .  S
C479        C483   1.548       .  S
C479        C575   1.536       .  S
C480       C1231   1.528       .  S
C480        H487   1.086       .  S
C480        C481   1.364       .  D
C481        C482   1.543       .  S
C481        C547   1.489       .  S
C482        C486   1.547       .  S
C482        C484   1.551       .  S
C482        H488   1.101       .  S
C483        H489   1.077       .  S
C483       C1236   1.370   1_455  D
C484       C1235   1.370       .  D
C484        C673   1.515       .  S
C485        H490   1.086       .  S
C485       C1238   1.363   1_455  D
C486       C1237   1.363       .  D
C486        C614   1.485       .  S
In491       O493   2.275       .  S
In491       O494   2.253       .  S
In491       O502   2.230       .  S
In491       O496   2.258       .  S
In491       O498   2.244       .  S
In491       O499   2.280       .  S
In491       O500   2.252       .  S
In491       O503   2.216       .  S
C492        O498   1.262       .  A
C492        O500   1.264       .  A
C492        C505   1.469   1_545  S
O493        C501   1.260       .  A
O494        C501   1.259       .  A
C495        O502   1.258       .  A
C495        O496   1.261       .  A
C495        C544   1.480       .  S
C497        O499   1.265       .  A
C497        O503   1.257       .  A
C497        C600   1.486       .  S
In504       O506   2.222       .  S
In504       O507   2.265       .  S
In504       O515   2.227       .  S
In504       O509   2.247       .  S
In504       O511   2.252       .  S
In504       O512   2.242       .  S
In504       O513   2.252       .  S
In504       O516   2.269       .  S
C505        O511   1.261       .  A
C505        O513   1.262       .  A
O506        C514   1.257       .  A
O507        C514   1.263       .  A
C508        O515   1.257       .  A
C508        O509   1.263       .  A
C508        C533   1.478       .  S
C510        O512   1.257       .  A
C510        O516   1.261       .  A
C514        C715   1.479       .  S
C517        C518   1.548       .  S
C517        C523   1.527       .  S
C517        C521   1.548       .  S
C517        C561   1.531       .  S
C518        H525   1.085       .  S
C518        C519   1.363       .  D
C519       C1272   1.531       .  S
C519        C645   1.481       .  S
C520       C1271   1.531   1_455  S
C520        C524   1.538       .  S
C520       C1274   1.539   1_455  S
C520        H526   1.108       .  S
C521        H527   1.084       .  S
C521        C522   1.370       .  D
C522       C1272   1.539       .  S
C522        C659   1.494       .  S
C523        H528   1.086       .  S
C523       C1276   1.360       .  D
C524       C1275   1.360   1_455  D
C524        C530   1.476       .  S
C529        C530   1.399       .  A
C529        C534   1.396       .  A
C529        H536   1.084       .  S
C530        C531   1.412       .  A
C531        C532   1.399       .  A
C531        N538   1.430       .  S
C532        C533   1.404       .  A
C532        H537   1.084       .  S
C533        C534   1.414       .  A
C534        N535   1.429       .  S
N535        O539   1.262       .  A
N535        O540   1.262       .  A
N538        O542   1.262       .  A
N538        O541   1.261       .  A
C543        C544   1.403       .  A
C543        C548   1.399       .  A
C543        H550   1.084       .  S
C544        C545   1.411       .  A
C545        C546   1.401       .  A
C545        N552   1.429       .  S
C546        C547   1.407       .  A
C546        H551   1.084       .  S
C547        C548   1.412       .  A
C548        N549   1.428       .  S
N549        O553   1.262       .  A
N549        O554   1.261       .  A
N552        O556   1.262       .  A
N552        O555   1.262       .  A
C557        C558   1.402       .  A
C557        C562   1.400       .  A
C557        H564   1.084       .  S
C558        C559   1.410       .  A
C559        C560   1.398       .  A
C559        N566   1.430       .  S
C560        C561   1.410       .  A
C560        H565   1.081       .  S
C561        C562   1.419       .  A
C562        N563   1.431       .  S
N563        O567   1.262       .  A
N563        O568   1.262       .  A
N566        O570   1.262       .  A
N566        O569   1.262       .  A
C571        C572   1.400       .  A
C571        C576   1.402       .  A
C571        H578   1.084       .  S
C572        C573   1.409       .  A
C573        C574   1.397       .  A
C573        N580   1.430       .  S
C574        C575   1.410       .  A
C574        H579   1.079       .  S
C575        C576   1.421       .  A
C576        N577   1.431       .  S
N577        O581   1.262       .  A
N577        O582   1.262       .  A
N580        O584   1.262       .  A
N580        O583   1.262       .  A
C585        C586   1.402       .  A
C585        C590   1.401       .  A
C585        H592   1.084       .  S
C586        C587   1.411       .  A
C587        C588   1.399       .  A
C587        N594   1.429       .  S
C588        C589   1.404       .  A
C588        H593   1.083       .  S
C589        C590   1.415       .  A
C590        N591   1.430       .  S
N591        O595   1.262       .  A
N591        O596   1.262       .  A
N594        O598   1.262       .  A
N594        O597   1.262       .  A
C599        C600   1.405       .  A
C599        C604   1.396       .  A
C599        H606   1.083       .  S
C600        C601   1.412       .  A
C601        C602   1.405       .  A
C601        N608   1.429       .  S
C602        C603   1.402       .  A
C602        H607   1.073       .  S
C603        C604   1.411       .  A
C604        N605   1.430       .  S
N605        O609   1.262       .  A
N605        O610   1.262       .  A
N608        O612   1.262       .  A
N608        O611   1.262       .  A
C613       C1366   1.400       .  A
C613        C618   1.399       .  A
C613        H620   1.079       .  S
C614       C1365   1.400       .  A
C614        C615   1.412       .  A
C615        C616   1.404       .  A
C615        N622   1.428       .  S
C616       C1369   1.404       .  A
C617       C1368   1.404   1_455  A
C617        C618   1.412   1_455  A
C618        N619   1.429   1_655  S
N619        O623   1.262       .  A
N619       O1376   1.262   1_455  A
N622        O626   1.261       .  A
N622       O1377   1.261       .  A
O624       N1371   1.262       .  A
O625       N1374   1.261   1_455  A
C627        C628   1.404       .  A
C627        C632   1.400       .  A
C627        H634   1.084       .  S
C628        C629   1.411       .  A
C629        C630   1.403       .  A
C629        N636   1.428       .  S
C630        C631   1.407       .  A
C630        H635   1.084       .  S
C631        C632   1.408       .  A
C632        N633   1.427       .  S
N633        O637   1.262       .  A
N633        O638   1.262       .  A
N636        O640   1.262       .  A
N636        O639   1.262       .  A
C641       C1394   1.405   1_455  A
C641        C646   1.403       .  A
C641        H648   1.084       .  S
C642       C1393   1.405       .  A
C642        C643   1.412       .  A
C643        C644   1.400       .  A
C644        C645   1.401       .  A
C644        H649   1.084       .  S
C645       C1398   1.409       .  A
C646       C1397   1.409   1_455  A
C646        N647   1.429       .  S
N647        O651   1.262       .  A
N647        O652   1.262   1_455  A
N650        O654   1.262       .  A
N650        O653   1.262       .  A
C655        C656   1.401       .  A
C655        C660   1.397       .  A
C655        H662   1.084       .  S
C656       C1409   1.410   1_455  A
C657       C1408   1.410       .  A
C657        C658   1.406       .  A
C657        N664   1.429       .  S
C658        C659   1.409       .  A
C658        H663   1.083       .  S
C659       C1412   1.413       .  A
C660       C1411   1.413   1_455  A
C660        N661   1.430       .  S
N661        O665   1.261       .  A
N661        O666   1.262       .  A
N664        O668   1.262       .  A
N664        O667   1.262       .  A
C669        C670   1.401       .  A
C669        C674   1.405       .  A
C669       H1428   1.084       .  S
C670        C671   1.413       .  A
C671        C672   1.401       .  A
C671        N678   1.429       .  S
C672        C673   1.409       .  A
C672        H677   1.078       .  S
C673        C674   1.424       .  A
C674       N1427   1.430       .  S
N675       C1426   1.430       .  S
N675       O1431   1.262       .  A
N675        O680   1.262       .  A
H676       C1421   1.084       .  S
N678        O682   1.262       .  A
N678        O681   1.262       .  A
O679       N1427   1.262       .  A
C683        C684   1.400       .  A
C683        C688   1.403       .  A
C683        H690   1.083       .  S
C684        C685   1.405       .  A
C685        C686   1.397       .  A
C685        N692   1.430       .  S
C686        C687   1.412       .  A
C686        H691   1.070       .  S
C687        C688   1.421       .  A
C688        N689   1.430       .  S
N689        O693   1.262       .  A
N689        O694   1.262       .  A
N692        O696   1.262       .  A
N692        O695   1.262       .  A
C697        C698   1.404       .  A
C697        C702   1.405       .  A
C697        H704   1.084       .  S
C698        C699   1.410       .  A
C699        C700   1.397       .  A
C699        N706   1.427       .  S
C700        C701   1.403       .  A
C700        H705   1.084       .  S
C701        C702   1.414       .  A
N703        O707   1.262       .  A
N703        O708   1.262       .  A
N706        O710   1.262       .  A
N706        O709   1.262       .  A
C711        C712   1.410       .  A
C711        C716   1.400       .  A
C711        H718   1.082       .  S
C712        C713   1.412       .  A
C713        C714   1.399       .  A
C713        N720   1.431       .  S
C714        C715   1.404       .  A
C714        H719   1.084       .  S
C715        C716   1.408       .  A
C716        N717   1.429       .  S
N717        O721   1.262       .  A
N717        O722   1.262       .  A
N720        O724   1.262       .  A
N720        O723   1.262       .  A
C725        C726   1.408       .  A
C725        C730   1.402       .  A
C725        H732   1.084       .  S
C726        C727   1.412       .  A
C727        C728   1.400       .  A
C727        N734   1.428       .  S
C728        C729   1.404       .  A
C728        H733   1.084       .  S
C729        C730   1.409       .  A
C730        N731   1.430       .  S
N731        O735   1.262       .  A
N731        O736   1.262       .  A
N734        O738   1.262       .  A
N734        O737   1.262       .  A
C739        C740   1.411       .  A
C739        C744   1.396       .  A
C739        H746   1.070       .  S
C740        C741   1.421       .  A
C741        C742   1.407       .  A
C741        N748   1.431       .  S
C742        C743   1.403       .  A
C742        H747   1.083       .  S
C743        C744   1.409       .  A
C744        N745   1.430       .  S
N745        O749   1.262       .  A
N745        O750   1.262       .  A
N748        O752   1.262       .  A
N748        O751   1.262       .  A
C753        C754   1.532       .  S
C753        C759   1.542       .  S
C753        C757   1.550       .  S
C753       C1116   1.540       .  S
C754        H761   1.086       .  S
C754        C755   1.367       .  D
C755        C756   1.542       .  S
C755       C1105   1.486       .  S
C756        C760   1.535       .  S
C756        C758   1.540       .  S
C756        H762   1.105       .  S
C757        H763   1.076       .  S
C757        C758   1.366       .  D
C758       C1088   1.494       .  S
C759        H764   1.086       .  S
C759        C760   1.365       .  D
C760       C1074   1.486       .  S
In765       O767   2.243       .  S
In765       O776   2.219       .  S
In765       O770   2.252       .  S
In765       O772   2.265       .  S
In765       O777   2.257       .  S
C766        O772   1.261       .  A
O767        C775   1.257       .  A
C769        O776   1.260       .  A
C769        O770   1.265       .  A
C769       C1060   1.474       .  S
C771        O777   1.258       .  A
C771        C810   1.474   1_655  S
C775       C1046   1.490       .  S
In778       O780   2.282       .  S
In778       O789   2.239       .  S
In778       O783   2.262       .  S
In778       O785   2.261       .  S
In778       O790   2.225       .  S
C779        O785   1.263       .  A
O780        C788   1.260       .  A
C782        O789   1.259       .  A
C782        O783   1.264       .  A
C782       C1102   1.486       .  S
C784        O790   1.257       .  A
C784       C1032   1.481       .  S
In791       O793   2.277       .  S
In791       O802   2.232       .  S
In791       O796   2.284       .  S
In791       O798   2.244       .  S
In791       O803   2.244       .  S
C792        O798   1.263       .  A
O793        C801   1.264       .  A
C795        O802   1.253       .  A
C795        O796   1.260       .  A
C795       C1119   1.483       .  S
C797        O803   1.257       .  A
C797       C1394   1.479       .  S
In804       O806   2.239   1_554  S
In804       O815   2.224       .  S
In804       O809   2.266       .  S
In804       O811   2.274       .  S
In804       O816   2.273       .  S
C805        O811   1.264       .  A
O806        C814   1.259   1_556  A
C808        O815   1.261       .  A
C808        O809   1.266       .  A
C808       C1004   1.484       .  S
C810        O812   1.261   1_455  A
C814       C1369   1.483   1_554  S
C817        C818   1.536       .  S
C817        C823   1.530       .  S
C817        C821   1.550       .  S
C817       C1063   1.537       .  S
C818        H825   1.085       .  S
C818        C819   1.365       .  D
C819        C820   1.540       .  S
C819        C979   1.487       .  S
C820        C824   1.546       .  S
C820        C822   1.539       .  S
C820        H826   1.110       .  S
C821        H827   1.076       .  S
C821        C822   1.367       .  D
C822        C965   1.491       .  S
C823        H828   1.086       .  S
C823        C824   1.365       .  D
C824       C1007   1.489       .  S
In829       O831   2.270       .  S
In829       O832   2.245       .  S
In829       O840   2.228       .  S
In829       O834   2.266       .  S
In829       O836   2.247       .  S
In829       O837   2.259       .  S
In829       O838   2.249       .  S
In829       O841   2.244       .  S
C830        O836   1.263       .  A
C830        O838   1.262       .  A
C830       C1219   1.469   1_545  S
O831        C839   1.264       .  A
O832        C839   1.261       .  A
C833        O840   1.254       .  A
C833        O834   1.261       .  A
C833        C948   1.477       .  S
C835        O837   1.262       .  A
C835        O841   1.257       .  A
C835       C1338   1.479       .  S
C839        C877   1.473       .  S
In842       O844   2.238   1_554  S
In842       O845   2.269       .  S
In842       O853   2.247       .  S
In842       O847   2.246       .  S
In842       O849   2.248       .  S
In842       O850   2.262       .  S
In842       O851   2.243       .  S
In842       O854   2.244       .  S
C843        O849   1.264       .  A
C843        O851   1.264       .  A
C843       C1206   1.469   1_564  S
O844        C852   1.259   1_556  A
O845        C852   1.260       .  A
C846        O853   1.256       .  A
C846        O847   1.256       .  A
C846        C934   1.479       .  S
C848        O850   1.260       .  A
C848        O854   1.260       .  A
C848        C886   1.467       .  S
C852       C1453   1.486   1_554  S
C855        C861   1.537       .  S
C855        C859   1.548       .  S
C855        C951   1.536       .  S
C856        H863   1.086       .  S
C856        C857   1.364       .  D
C857        C858   1.543       .  S
C857        C923   1.489       .  S
C858        C862   1.547       .  S
C858        C860   1.551       .  S
C858        H864   1.101       .  S
C859        H865   1.077       .  S
C860       C1049   1.515       .  S
C861        H866   1.086       .  S
C862        C990   1.485       .  S
In867       O869   2.275       .  S
In867       O870   2.253       .  S
In867       O878   2.230       .  S
In867       O872   2.258       .  S
In867       O874   2.244       .  S
In867       O875   2.280       .  S
In867       O876   2.252       .  S
In867       O879   2.216       .  S
C868        O874   1.262       .  A
C868        O876   1.264       .  A
C868        C881   1.469   1_545  S
O869        C877   1.260       .  A
O870        C877   1.259       .  A
C871        O878   1.258       .  A
C871        O872   1.261       .  A
C871        C920   1.480       .  S
C873        O875   1.265       .  A
C873        O879   1.257       .  A
C873        C976   1.486       .  S
In880       O882   2.222       .  S
In880       O883   2.265       .  S
In880       O891   2.227       .  S
In880       O885   2.247       .  S
In880       O887   2.252       .  S
In880       O888   2.242       .  S
In880       O889   2.252       .  S
In880       O892   2.269       .  S
C881        O887   1.261       .  A
C881        O889   1.262       .  A
O882        C890   1.257       .  A
O883        C890   1.263       .  A
C884        O891   1.257       .  A
C884        O885   1.263       .  A
C884        C909   1.478       .  S
C886        O888   1.257       .  A
C886        O892   1.261       .  A
C890       C1091   1.479       .  S
C893        C894   1.548       .  S
C893        C899   1.527       .  S
C893        C897   1.548       .  S
C893        C937   1.531       .  S
C894        H901   1.085       .  S
C894        C895   1.363       .  D
C895       C1021   1.481       .  S
C896        C900   1.538       .  S
C896        H902   1.108       .  S
C897        H903   1.084       .  S
C897        C898   1.370       .  D
C898       C1035   1.494       .  S
C899        H904   1.086       .  S
C900        C906   1.476       .  S
C905        C906   1.399       .  A
C905        C910   1.396       .  A
C905        H912   1.084       .  S
C906        C907   1.412       .  A
C907        C908   1.399       .  A
C907        N914   1.430       .  S
C908        C909   1.404       .  A
C908        H913   1.084       .  S
C909        C910   1.414       .  A
C910        N911   1.429       .  S
N911        O915   1.262       .  A
N911        O916   1.262       .  A
N914        O918   1.262       .  A
N914        O917   1.261       .  A
C919        C920   1.403       .  A
C919        C924   1.399       .  A
C919        H926   1.084       .  S
C920        C921   1.411       .  A
C921        C922   1.401       .  A
C921        N928   1.429       .  S
C922        C923   1.407       .  A
C922        H927   1.084       .  S
C923        C924   1.412       .  A
C924        N925   1.428       .  S
N925        O929   1.262       .  A
N925        O930   1.261       .  A
N928        O932   1.262       .  A
N928        O931   1.262       .  A
C933        C934   1.402       .  A
C933        C938   1.400       .  A
C933        H940   1.084       .  S
C934        C935   1.410       .  A
C935        C936   1.398       .  A
C935        N942   1.430       .  S
C936        C937   1.410       .  A
C936        H941   1.081       .  S
C937        C938   1.419       .  A
C938        N939   1.431       .  S
N939        O943   1.262       .  A
N939        O944   1.262       .  A
N942        O946   1.262   1_554  A
N942        O945   1.262       .  A
C947        C948   1.400       .  A
C947        C952   1.402       .  A
C947        H954   1.084       .  S
C948        C949   1.409       .  A
C949        C950   1.397       .  A
C949        N956   1.430       .  S
C950        C951   1.410       .  A
C950        H955   1.079       .  S
C951        C952   1.421       .  A
C952        N953   1.431       .  S
N953        O957   1.262       .  A
N953        O958   1.262       .  A
N956        O960   1.262       .  A
N956        O959   1.262       .  A
C961        C962   1.402       .  A
C961        C966   1.401       .  A
C961        H968   1.084   1_554  S
C962       C1211   1.479   1_554  S
C962        C963   1.411       .  A
C963        C964   1.399       .  A
C963        N970   1.429       .  S
C964        C965   1.404       .  A
C964        H969   1.083       .  S
C965        C966   1.415       .  A
C966        N967   1.430       .  S
N967        O971   1.262       .  A
N967        O972   1.262       .  A
N970        O974   1.262       .  A
N970        O973   1.262       .  A
C975        C976   1.405       .  A
C975        C980   1.396       .  A
C975        H982   1.083       .  S
C976        C977   1.412       .  A
C977        C978   1.405       .  A
C977        N984   1.429       .  S
C978        C979   1.402       .  A
C978        H983   1.073       .  S
C979        C980   1.411       .  A
C980        N981   1.430       .  S
N981        O985   1.262       .  A
N981        O986   1.262       .  A
N984        O988   1.262       .  A
N984        O987   1.262       .  A
C989        C994   1.399       .  A
C989        H996   1.079       .  S
C990        C991   1.412       .  A
C991        C992   1.404       .  A
C991        N998   1.428       .  S
C992       H1373   1.084       .  S
C993       C1190   1.483       .  S
C993        C994   1.412       .  A
C994        N995   1.429       .  S
N995        O999   1.262       .  A
H997       C1368   1.084   1_554  S
N998       O1002   1.261       .  A
C1003      C1004   1.404       .  A
C1003      C1008   1.400       .  A
C1003      H1010   1.084       .  S
C1004      C1005   1.411       .  A
C1005      C1006   1.403       .  A
C1005      N1012   1.428       .  S
C1006      C1007   1.407       .  A
C1006      H1011   1.084       .  S
C1007      C1008   1.408       .  A
C1008      N1009   1.427       .  S
N1009      O1013   1.262       .  A
N1009      O1014   1.262       .  A
N1012      O1016   1.262       .  A
N1012      O1015   1.262       .  A
C1017      C1022   1.403       .  A
C1017      H1024   1.084   1_554  S
C1018      C1173   1.479       .  S
C1018      C1019   1.411       .  A
C1019      C1020   1.400       .  A
C1019      N1402   1.429       .  S
C1020      C1021   1.401       .  A
C1020      H1025   1.084       .  S
C1022      N1023   1.429       .  S
N1023      O1027   1.262       .  A
N1023      O1028   1.262       .  A
N1026      C1395   1.429       .  S
N1026      O1030   1.262       .  A
N1026      O1029   1.262   1_655  A
C1031      C1032   1.401       .  A
C1031      C1036   1.397       .  A
C1031      H1038   1.084       .  S
C1033      C1034   1.406       .  A
C1033      N1040   1.429       .  S
C1034      C1035   1.409       .  A
C1034      H1039   1.083       .  S
C1036      N1037   1.430       .  S
N1037      O1041   1.261       .  A
N1037      O1042   1.262       .  A
N1040      O1044   1.262       .  A
N1040      O1043   1.262       .  A
C1045      C1046   1.401   1_455  A
C1045      C1050   1.405       .  A
C1046      C1047   1.413       .  A
C1047      C1048   1.401       .  A
C1047      N1054   1.429       .  S
C1048      C1049   1.409       .  A
C1048      H1053   1.078       .  S
C1049      C1050   1.424   1_655  A
N1051      O1056   1.262       .  A
N1054      O1058   1.262       .  A
N1054      O1057   1.262       .  A
C1059      C1060   1.400       .  A
C1059      C1064   1.402       .  A
C1059      H1066   1.083       .  S
C1060      C1061   1.405       .  A
C1061      C1062   1.397       .  A
C1061      N1068   1.430       .  S
C1062      C1063   1.412       .  A
C1062      H1067   1.070       .  S
C1063      C1064   1.421       .  A
C1064      N1065   1.430       .  S
N1065      O1069   1.262       .  A
N1065      O1070   1.262       .  A
N1068      O1072   1.262       .  A
N1068      O1071   1.262       .  A
C1073      C1074   1.404       .  A
C1073      C1078   1.405       .  A
C1073      H1080   1.084       .  S
C1074      C1075   1.410       .  A
C1075      C1076   1.397       .  A
C1075      N1082   1.427       .  S
C1076      C1077   1.403       .  A
C1076      H1081   1.084       .  S
C1077      C1228   1.486       .  S
C1077      C1078   1.414       .  A
C1078      N1455   1.428       .  S
N1079      C1454   1.428   1_554  S
N1079      O1083   1.262       .  A
N1079      O1084   1.262       .  A
N1082      O1086   1.262       .  A
N1082      O1085   1.262       .  A
C1087      C1088   1.410       .  A
C1087      C1092   1.400       .  A
C1087      H1094   1.082       .  S
C1088      C1089   1.412       .  A
C1089      C1090   1.399       .  A
C1089      N1096   1.431       .  S
C1090      C1091   1.404       .  A
C1090      H1095   1.084       .  S
C1091      C1092   1.408       .  A
C1092      N1093   1.429       .  S
N1093      O1097   1.262       .  A
N1093      O1098   1.262       .  A
N1096      O1100   1.262       .  A
N1096      O1099   1.262       .  A
C1101      C1102   1.408       .  A
C1101      C1106   1.402       .  A
C1101      H1108   1.084       .  S
C1102      C1103   1.412       .  A
C1103      C1104   1.400       .  A
C1103      N1110   1.428       .  S
C1104      C1105   1.404       .  A
C1104      H1109   1.084       .  S
C1105      C1106   1.409       .  A
C1106      N1107   1.430       .  S
N1107      O1111   1.262       .  A
N1107      O1112   1.262       .  A
N1110      O1114   1.262       .  A
N1110      O1113   1.262       .  A
C1115      C1116   1.411       .  A
C1115      C1120   1.396       .  A
C1115      H1122   1.071       .  S
C1116      C1117   1.421       .  A
C1117      C1118   1.407       .  A
C1117      N1124   1.431       .  S
C1118      C1119   1.403       .  A
C1118      H1123   1.083       .  S
C1119      C1120   1.409       .  A
C1120      N1121   1.430       .  S
N1121      O1125   1.262       .  A
N1121      O1126   1.262       .  A
N1124      O1128   1.262       .  A
N1124      O1127   1.262       .  A
C1129      C1130   1.532       .  S
C1129      C1135   1.543       .  S
C1129      C1133   1.550       .  S
C1129      C1492   1.540       .  S
C1130      H1137   1.086       .  S
C1130      C1131   1.367       .  D
C1131      C1132   1.542       .  S
C1131      C1481   1.486       .  S
C1132      C1136   1.535       .  S
C1132      C1134   1.540       .  S
C1132      H1138   1.105       .  S
C1133      H1139   1.075       .  S
C1133      C1134   1.366       .  D
C1134      C1464   1.494       .  S
C1135      H1140   1.086       .  S
C1135      C1136   1.365       .  D
C1136      C1450   1.486       .  S
In1141     O1143   2.243       .  S
In1141     O1152   2.219       .  S
In1141     O1146   2.252       .  S
In1141     O1148   2.264       .  S
In1141     O1153   2.257       .  S
C1142      O1148   1.261       .  A
O1143      C1151   1.257       .  A
C1145      O1152   1.260       .  A
C1145      O1146   1.265       .  A
C1145      C1436   1.474       .  S
C1147      O1153   1.258       .  A
C1147      C1186   1.474   1_655  S
C1151      C1422   1.490       .  S
In1154     O1156   2.282       .  S
In1154     O1165   2.239       .  S
In1154     O1159   2.262       .  S
In1154     O1161   2.261       .  S
In1154     O1166   2.225       .  S
C1155      O1161   1.263       .  A
O1156      C1164   1.260       .  A
C1158      O1165   1.259       .  A
C1158      O1159   1.264       .  A
C1158      C1478   1.486       .  S
C1160      O1166   1.257       .  A
C1160      C1408   1.481       .  S
In1167     O1169   2.277       .  S
In1167     O1178   2.232       .  S
In1167     O1172   2.284       .  S
In1167     O1174   2.244       .  S
In1167     O1179   2.244   1_556  S
C1168      O1174   1.263       .  A
O1169      C1177   1.264       .  A
C1171      O1178   1.253       .  A
C1171      O1172   1.260       .  A
C1171      C1495   1.483       .  S
C1173      O1179   1.257       .  A
In1180     O1182   2.239       .  S
In1180     O1191   2.224       .  S
In1180     O1185   2.266       .  S
In1180     O1187   2.273       .  S
In1180     O1192   2.273       .  S
C1181      O1187   1.264       .  A
O1182      C1190   1.259       .  A
C1184      O1191   1.261       .  A
C1184      O1185   1.266       .  A
C1184      C1380   1.484       .  S
C1186      O1188   1.261   1_455  A
C1193      C1194   1.536       .  S
C1193      C1199   1.530       .  S
C1193      C1197   1.550       .  S
C1193      C1439   1.537       .  S
C1194      H1201   1.085       .  S
C1194      C1195   1.365       .  D
C1195      C1196   1.540       .  S
C1195      C1355   1.487       .  S
C1196      C1200   1.546       .  S
C1196      C1198   1.539       .  S
C1196      H1202   1.110       .  S
C1197      H1203   1.076       .  S
C1197      C1198   1.367       .  D
C1198      C1341   1.491       .  S
C1199      H1204   1.086       .  S
C1199      C1200   1.365       .  D
C1200      C1383   1.489       .  S
In1205     O1207   2.270       .  S
In1205     O1208   2.245       .  S
In1205     O1216   2.228       .  S
In1205     O1210   2.266       .  S
In1205     O1212   2.247       .  S
In1205     O1213   2.259       .  S
In1205     O1214   2.249       .  S
In1205     O1217   2.244       .  S
C1206      O1212   1.263       .  A
C1206      O1214   1.262       .  A
O1207      C1215   1.263       .  A
O1208      C1215   1.261       .  A
C1209      O1216   1.254       .  A
C1209      O1210   1.261       .  A
C1209      C1324   1.477       .  S
C1211      O1213   1.262       .  A
C1211      O1217   1.257       .  A
C1215      C1253   1.473       .  S
In1218     O1220   2.238       .  S
In1218     O1221   2.269       .  S
In1218     O1229   2.246       .  S
In1218     O1223   2.246       .  S
In1218     O1225   2.248       .  S
In1218     O1226   2.262       .  S
In1218     O1227   2.243       .  S
In1218     O1230   2.244       .  S
C1219      O1225   1.264       .  A
C1219      O1227   1.264       .  A
O1220      C1228   1.259       .  A
O1221      C1228   1.260       .  A
C1222      O1229   1.256       .  A
C1222      O1223   1.256       .  A
C1222      C1310   1.479       .  S
C1224      O1226   1.260       .  A
C1224      O1230   1.260       .  A
C1224      C1262   1.467       .  S
C1231      C1237   1.537       .  S
C1231      C1235   1.548       .  S
C1231      C1327   1.536       .  S
C1232      H1239   1.086       .  S
C1232      C1233   1.363       .  D
C1233      C1234   1.543       .  S
C1233      C1299   1.489       .  S
C1234      C1238   1.547       .  S
C1234      C1236   1.551       .  S
C1234      H1240   1.101       .  S
C1235      H1241   1.078       .  S
C1236      C1425   1.515       .  S
C1237      H1242   1.086       .  S
C1238      C1366   1.485       .  S
In1243     O1245   2.275       .  S
In1243     O1246   2.253       .  S
In1243     O1254   2.230       .  S
In1243     O1248   2.258       .  S
In1243     O1250   2.244       .  S
In1243     O1251   2.280       .  S
In1243     O1252   2.252       .  S
In1243     O1255   2.217       .  S
C1244      O1250   1.262       .  A
C1244      O1252   1.264       .  A
C1244      C1257   1.469   1_545  S
O1245      C1253   1.260       .  A
O1246      C1253   1.259       .  A
C1247      O1254   1.258       .  A
C1247      O1248   1.261       .  A
C1247      C1296   1.480       .  S
C1249      O1251   1.265       .  A
C1249      O1255   1.257       .  A
C1249      C1352   1.486       .  S
In1256     O1258   2.222       .  S
In1256     O1259   2.265       .  S
In1256     O1267   2.227       .  S
In1256     O1261   2.247       .  S
In1256     O1263   2.252       .  S
In1256     O1264   2.242       .  S
In1256     O1265   2.252       .  S
In1256     O1268   2.269       .  S
C1257      O1263   1.261       .  A
C1257      O1265   1.262       .  A
O1258      C1266   1.257       .  A
O1259      C1266   1.263       .  A
C1260      O1267   1.257       .  A
C1260      O1261   1.263       .  A
C1260      C1285   1.478       .  S
C1262      O1264   1.258       .  A
C1262      O1268   1.261       .  A
C1266      C1467   1.479       .  S
C1269      C1270   1.548       .  S
C1269      C1275   1.527       .  S
C1269      C1273   1.548       .  S
C1269      C1313   1.531       .  S
C1270      H1277   1.085       .  S
C1270      C1271   1.363       .  D
C1271      C1397   1.481       .  S
C1272      C1276   1.538       .  S
C1272      H1278   1.108       .  S
C1273      H1279   1.084       .  S
C1273      C1274   1.370       .  D
C1274      C1411   1.494       .  S
C1275      H1280   1.086       .  S
C1276      C1282   1.475       .  S
C1281      C1282   1.399       .  A
C1281      C1286   1.396       .  A
C1281      H1288   1.084       .  S
C1282      C1283   1.412       .  A
C1283      C1284   1.399       .  A
C1283      N1290   1.430       .  S
C1284      C1285   1.404       .  A
C1284      H1289   1.084       .  S
C1285      C1286   1.414       .  A
C1286      N1287   1.429       .  S
N1287      O1291   1.262       .  A
N1287      O1292   1.262       .  A
N1290      O1294   1.262       .  A
N1290      O1293   1.261       .  A
C1295      C1296   1.403       .  A
C1295      C1300   1.399       .  A
C1295      H1302   1.084       .  S
C1296      C1297   1.411       .  A
C1297      C1298   1.401       .  A
C1297      N1304   1.429       .  S
C1298      C1299   1.407       .  A
C1298      H1303   1.084       .  S
C1299      C1300   1.412       .  A
C1300      N1301   1.428       .  S
N1301      O1305   1.262       .  A
N1301      O1306   1.261       .  A
N1304      O1308   1.262       .  A
N1304      O1307   1.262       .  A
C1309      C1310   1.402       .  A
C1309      C1314   1.400       .  A
C1309      H1316   1.084       .  S
C1310      C1311   1.410       .  A
C1311      C1312   1.398       .  A
C1311      N1318   1.430       .  S
C1312      C1313   1.410       .  A
C1312      H1317   1.081       .  S
C1313      C1314   1.419       .  A
C1314      N1315   1.431       .  S
N1315      O1319   1.262       .  A
N1315      O1320   1.262       .  A
N1318      O1322   1.262       .  A
N1318      O1321   1.262       .  A
C1323      C1324   1.400       .  A
C1323      C1328   1.402       .  A
C1323      H1330   1.084       .  S
C1324      C1325   1.409       .  A
C1325      C1326   1.397       .  A
C1325      N1332   1.430       .  S
C1326      C1327   1.410       .  A
C1326      H1331   1.079       .  S
C1327      C1328   1.421       .  A
C1328      N1329   1.431       .  S
N1329      O1333   1.262       .  A
N1329      O1334   1.262       .  A
N1332      O1336   1.262       .  A
N1332      O1335   1.262       .  A
C1337      C1338   1.402       .  A
C1337      C1342   1.401       .  A
C1337      H1344   1.084       .  S
C1338      C1339   1.411       .  A
C1339      C1340   1.399       .  A
C1339      N1346   1.429       .  S
C1340      C1341   1.404       .  A
C1340      H1345   1.083       .  S
C1341      C1342   1.415       .  A
C1342      N1343   1.430       .  S
N1343      O1347   1.262       .  A
N1343      O1348   1.262       .  A
N1346      O1350   1.262       .  A
N1346      O1349   1.262       .  A
C1351      C1352   1.405       .  A
C1351      C1356   1.396       .  A
C1351      H1358   1.083       .  S
C1352      C1353   1.412       .  A
C1353      C1354   1.405       .  A
C1353      N1360   1.429       .  S
C1354      C1355   1.402       .  A
C1354      H1359   1.073       .  S
C1355      C1356   1.411       .  A
C1356      N1357   1.430       .  S
N1357      O1361   1.262       .  A
N1357      O1362   1.262       .  A
N1360      O1364   1.262       .  A
N1360      O1363   1.262       .  A
C1365      C1370   1.399       .  A
C1365      H1372   1.079       .  S
C1366      C1367   1.412       .  A
C1367      C1368   1.404       .  A
C1367      N1374   1.428       .  S
C1369      C1370   1.412       .  A
C1370      N1371   1.429       .  S
N1371      O1375   1.262       .  A
N1374      O1378   1.261       .  A
C1379      C1380   1.404       .  A
C1379      C1384   1.400       .  A
C1379      H1386   1.084       .  S
C1380      C1381   1.411       .  A
C1381      C1382   1.403       .  A
C1381      N1388   1.428       .  S
C1382      C1383   1.407       .  A
C1382      H1387   1.084       .  S
C1383      C1384   1.408       .  A
C1384      N1385   1.427       .  S
N1385      O1389   1.262       .  A
N1385      O1390   1.262       .  A
N1388      O1392   1.262       .  A
N1388      O1391   1.262       .  A
C1393      C1398   1.403       .  A
C1393      H1400   1.084       .  S
C1394      C1395   1.412       .  A
C1395      C1396   1.400       .  A
C1396      C1397   1.401       .  A
C1396      H1401   1.084       .  S
C1398      N1399   1.429       .  S
N1399      O1403   1.262       .  A
N1399      O1404   1.262       .  A
N1402      O1406   1.262       .  A
N1402      O1405   1.262   1_655  A
C1407      C1408   1.401       .  A
C1407      C1412   1.397       .  A
C1407      H1414   1.084       .  S
C1409      C1410   1.406       .  A
C1409      N1416   1.429       .  S
C1410      C1411   1.409       .  A
C1410      H1415   1.083       .  S
C1412      N1413   1.430       .  S
N1413      O1417   1.261       .  A
N1413      O1418   1.262       .  A
N1416      O1420   1.262       .  A
N1416      O1419   1.262       .  A
C1421      C1422   1.401   1_455  A
C1421      C1426   1.405       .  A
C1422      C1423   1.413       .  A
C1423      C1424   1.401       .  A
C1423      N1430   1.429       .  S
C1424      C1425   1.409       .  A
C1424      H1429   1.078       .  S
C1425      C1426   1.424   1_655  A
N1427      O1432   1.262       .  A
N1430      O1434   1.262       .  A
N1430      O1433   1.262       .  A
C1435      C1436   1.400       .  A
C1435      C1440   1.403       .  A
C1435      H1442   1.083       .  S
C1436      C1437   1.405       .  A
C1437      C1438   1.397       .  A
C1437      N1444   1.430       .  S
C1438      C1439   1.412       .  A
C1438      H1443   1.070       .  S
C1439      C1440   1.421       .  A
C1440      N1441   1.430       .  S
N1441      O1445   1.262       .  A
N1441      O1446   1.262       .  A
N1444      O1448   1.262       .  A
N1444      O1447   1.262       .  A
C1449      C1450   1.404       .  A
C1449      C1454   1.405       .  A
C1449      H1456   1.084       .  S
C1450      C1451   1.410       .  A
C1451      C1452   1.397       .  A
C1451      N1458   1.427       .  S
C1452      C1453   1.403       .  A
C1452      H1457   1.084       .  S
C1453      C1454   1.414       .  A
N1455      O1459   1.262       .  A
N1455      O1460   1.262       .  A
N1458      O1462   1.262       .  A
N1458      O1461   1.262       .  A
C1463      C1464   1.410       .  A
C1463      C1468   1.400       .  A
C1463      H1470   1.082       .  S
C1464      C1465   1.412       .  A
C1465      C1466   1.399       .  A
C1465      N1472   1.431       .  S
C1466      C1467   1.404       .  A
C1466      H1471   1.084       .  S
C1467      C1468   1.408       .  A
C1468      N1469   1.429       .  S
N1469      O1473   1.262       .  A
N1469      O1474   1.262       .  A
N1472      O1476   1.262       .  A
N1472      O1475   1.262       .  A
C1477      C1478   1.408       .  A
C1477      C1482   1.402       .  A
C1477      H1484   1.084       .  S
C1478      C1479   1.412       .  A
C1479      C1480   1.400       .  A
C1479      N1486   1.428       .  S
C1480      C1481   1.404       .  A
C1480      H1485   1.084       .  S
C1481      C1482   1.409       .  A
C1482      N1483   1.430       .  S
N1483      O1487   1.262       .  A
N1483      O1488   1.262       .  A
N1486      O1490   1.262       .  A
N1486      O1489   1.262       .  A
C1491      C1492   1.411       .  A
C1491      C1496   1.396       .  A
C1491      H1498   1.070       .  S
C1492      C1493   1.421       .  A
C1493      C1494   1.407       .  A
C1493      N1500   1.431       .  S
C1494      C1495   1.403       .  A
C1494      H1499   1.083       .  S
C1495      C1496   1.409       .  A
C1496      N1497   1.430       .  S
N1497      O1501   1.262       .  A
N1497      O1502   1.262       .  A
N1500      O1504   1.262       .  A
N1500      O1503   1.262       .  A
