geometry optimzed in LAMMPS
_audit_creation_date              2020-11-30 
_audit_creation_method            'lammps2cif' 
_symmetry_space_group_name_H-M    'P1' 
_symmetry_Int_Tables_number       1 
_symmetry_cell_setting            triclinic 
loop_ 
_symmetry_equiv_pos_as_xyz 
  x,y,z 
_cell_length_a                    32.34310391 
_cell_length_b                    32.44152140406087 
_cell_length_c                    48.46982543885912 
_cell_angle_alpha                 90.19562375885634 
_cell_angle_beta                  89.79959315081798 
_cell_angle_gamma                 121.39396662789314 
loop_ 
_atom_site_label 
_atom_site_type_symbol 
_atom_site_fract_x 
_atom_site_fract_y 
_atom_site_fract_z 
_atom_site_charge 
C1          C  0.33168023  0.16707046  0.34799315     0.47700
H2          H  0.33171257  0.16644283  0.32508813    -0.01300
C3          C  0.33192230  0.16858048  0.40175877     0.47800
H4          H  0.33204367  0.16923891  0.42466479    -0.01300
C5          C  0.35618547  0.21810972  0.36025642    -0.15000
C6          C  0.28082381  0.14036716  0.36083231    -0.14800
C7          C  0.35799548  0.14403247  0.36112438    -0.15100
C8          C  0.35617508  0.21888484  0.38857366    -0.15100
C9          C  0.28098557  0.14079298  0.38915945    -0.14700
C10         C  0.35831929  0.14499972  0.38939282    -0.15000
C11         C  0.16123060  0.33739729  0.15197760     0.47700
H12         H  0.16122691  0.33685605  0.17491197    -0.01300
C13         C  0.16069686  0.33829543  0.09831740     0.47800
H14         H  0.16044762  0.33850431  0.07537425    -0.01300
C15         C  0.21219307  0.36346685  0.13911820    -0.15000
C16         C  0.13515430  0.28679111  0.13897551    -0.14800
C17         C  0.13617417  0.36252405  0.13991780    -0.15100
C18         C  0.21178406  0.36345838  0.11071754    -0.15100
C19         C  0.13475067  0.28730619  0.11063637    -0.14700
C20         C  0.13616412  0.36336430  0.11152162    -0.15000
O21         O  0.48156235  0.40989243  0.46438601    -0.76200
C22         C  0.10805095  0.05481239  0.45638410     0.84800
O23         O  0.03331569  0.47200114  0.05757060    -0.77400
O24         O  0.05950822  0.11863875  0.01840782    -0.78800
O25         O  0.41842375  0.01747318  0.46267452    -0.78600
O26         O  0.41373093  0.41121336  0.46109179    -0.77300
Zn27       Zn  0.02787422  0.46744809  0.48743335     1.55700
O28         O  0.48985958  0.08622026  0.46231189    -0.78700
Cd29       Cd  0.42957049  0.47033458  0.48543870     1.59700
Cd30       Cd  0.49609001  0.00283833  0.04134861     1.59600
O31         O  0.38050511  0.44648755  0.01750281    -0.78700
O32         O  0.49713558  0.00221705  0.49999880    -1.89200
Cd33       Cd  0.03317991  0.07009695  0.48607901     1.59900
O34         O  0.42522942  0.46397599  0.05566226    -0.78600
O35         O  0.09154350  0.08161693  0.46291047    -0.77300
C36         C  0.05010815  0.44843894  0.04589207     0.85300
C37         C  0.43850527  0.39196652  0.45543503     0.84900
O38         O  0.08727041  0.01088134  0.46414170    -0.76200
C39         C  0.44527549  0.06150176  0.45552166     0.85700
O40         O  0.04879524  0.44301899  0.01977562    -0.76300
C41         C  0.38435445  0.44576928  0.04360982     0.85900
C42         C  0.05263575  0.11424258  0.04438862     0.86200
O43         O  0.02798219  0.07314629  0.05606116    -0.78700
O44         O  0.08818391  0.01643680  0.28652603    -0.76200
C45         C  0.44103321  0.39085784  0.29355921     0.84800
O46         O  0.02924281  0.46567041  0.19385428    -0.77400
O47         O  0.38075626  0.44287987  0.23169141    -0.78800
O48         O  0.48541041  0.08237008  0.28788043    -0.78600
O49         O  0.09114908  0.08652181  0.28695753    -0.77300
Zn50       Zn  0.03037417  0.47091077  0.26369866     1.55700
O51         O  0.41542775  0.01197833  0.28845415    -0.78700
Cd52       Cd  0.03078195  0.07051788  0.26377228     1.59700
Cd53       Cd  0.49728643  0.00258400  0.20885792     1.59600
O54         O  0.05210676  0.11849056  0.23127904    -0.78700
O55         O  0.49720979  0.00242696  0.25018316    -1.89200
Cd56       Cd  0.42897659  0.46738362  0.26411807     1.59900
O57         O  0.03472947  0.07268264  0.19356894    -0.78600
O58         O  0.41442106  0.40735436  0.28664771    -0.77300
C59         C  0.05127091  0.44795320  0.20618197     0.85300
C60         C  0.10832956  0.06048548  0.29385754     0.84900
O61         O  0.48551670  0.41202933  0.28655206    -0.76200
C62         C  0.44138689  0.05629739  0.29545503     0.85700
O63         O  0.05510411  0.44888758  0.23232991    -0.76300
C64         C  0.05213422  0.11379835  0.20517707     0.85900
C65         C  0.38561013  0.44715936  0.20558598     0.86200
O66         O  0.42703467  0.46931210  0.19390058    -0.78700
C67         C  0.04501201  0.16391872  0.08117021     0.25800
C68         C  0.07354386  0.15836695  0.06134265    -0.22300
C69         C  0.12174198  0.19594580  0.05721615     0.20800
C70         C  0.14138158  0.23809140  0.07306417     0.25800
C71         C  0.11295176  0.24349455  0.09304182    -0.22200
C72         C  0.06436240  0.20647066  0.09662449     0.20700
F73         F  0.03546788  0.21184884  0.11479785    -0.12200
F74         F  0.99793604  0.12873409  0.08493313    -0.14500
F75         F  0.18868231  0.27287714  0.06957926    -0.14500
F76         F  0.15025608  0.19116794  0.03844415    -0.12200
C77         C  0.26298252  0.41596898  0.07191905     0.25800
C78         C  0.25545372  0.38306034  0.09294750    -0.22300
C79         C  0.28966566  0.36922265  0.09686563     0.20800
C80         C  0.33201335  0.39006037  0.08100716     0.25800
C81         C  0.33987785  0.42363828  0.06035158    -0.22200
C82         C  0.30472615  0.43585449  0.05561264     0.20700
F83         F  0.31169212  0.46842244  0.03582371    -0.12200
F84         F  0.23070531  0.43014629  0.06778940    -0.14500
F85         F  0.36471517  0.37646691  0.08526760    -0.14500
F86         F  0.28171900  0.33498980  0.11572520    -0.12200
C87         C  0.06012383  0.37918539  0.05801062     0.25800
C88         C  0.07183466  0.42682528  0.06295431    -0.22300
C89         C  0.10519085  0.45383919  0.08388117     0.20800
C90         C  0.12718451  0.43387082  0.09920217     0.25800
C91         C  0.11483969  0.38589478  0.09454966    -0.22200
C92         C  0.08116991  0.35881430  0.07378644     0.20700
F93         F  0.06741103  0.31201283  0.06937472    -0.12200
F94         F  0.02702744  0.35179292  0.03846288    -0.14500
F95         F  0.16119097  0.46172431  0.11823217    -0.14500
F96         F  0.11766682  0.50012750  0.08888338    -0.12200
C97         C  0.10681753  0.16568913  0.16724238     0.25800
C98         C  0.07296924  0.15756188  0.18797687    -0.22300
C99         C  0.06001693  0.19219339  0.19266665     0.20800
C100        C  0.08031269  0.23414311  0.17667823     0.25800
C101        C  0.11430743  0.24239829  0.15600860    -0.22200
C102        C  0.12803781  0.20821572  0.15172534     0.20700
F103        F  0.16285767  0.21653544  0.13300401    -0.12200
F104        F  0.12057833  0.13320565  0.16269891    -0.14500
F105        F  0.06583060  0.26615031  0.18089726    -0.14500
F106        F  0.52662791  0.18469522  0.21221863    -0.12200
C107        C  0.30251606  0.37916163  0.19406374     0.25800
C108        C  0.34165464  0.42586128  0.18845332    -0.22300
C109        C  0.33792190  0.45248426  0.16686493     0.20800
C110        C  0.29537057  0.43297605  0.15137051     0.25800
C111        C  0.25669261  0.38558196  0.15635757    -0.22200
C112        C  0.26065132  0.35894730  0.17792716     0.20700
F113        F  0.22456471  0.31278474  0.18292228    -0.12200
F114        F  0.30541082  0.35254238  0.21468811    -0.14500
F115        F  0.29163157  0.46087018  0.13193184    -0.14700
F116        F  0.37484898  0.49809163  0.16144323    -0.12200
C117        C  0.11964358  0.43543477  0.19540157     0.25800
C118        C  0.07257339  0.42521493  0.18980418    -0.22300
C119        C  0.04552349  0.39225049  0.16879250     0.20800
C120        C  0.06535655  0.37019213  0.15339335     0.25800
C121        C  0.11341978  0.38248245  0.15786840    -0.22200
C122        C  0.14010034  0.41457970  0.17936867     0.20700
F123        F  0.18652168  0.42701178  0.18427034    -0.12200
F124        F  0.14642945  0.46694599  0.21574949    -0.14500
F125        F  0.03732730  0.33627260  0.13437490    -0.14500
F126        F  0.99931883  0.38034535  0.16372885    -0.12200
C127        C  0.35243026  0.08588125  0.42428604     0.25800
C128        C  0.38118502  0.12491642  0.40680348    -0.22300
C129        C  0.43145473  0.14452798  0.40603027     0.20800
C130        C  0.45261520  0.12460064  0.42214361     0.25800
C131        C  0.42363475  0.08423373  0.43908169    -0.22200
C132        C  0.37327088  0.06546189  0.44012481     0.20700
F133        F  0.34405144  0.02765891  0.45679089    -0.12200
F134        F  0.30382484  0.06676033  0.42554410    -0.14500
F135        F  0.50128859  0.14427493  0.42070662    -0.14500
F136        F  0.46010763  0.18337231  0.38989329    -0.12200
C137        C  0.41514835  0.27472653  0.42349158     0.25800
C138        C  0.37686169  0.26328262  0.40547762    -0.22300
C139        C  0.35802121  0.29362773  0.40411272     0.20800
C140        C  0.37764928  0.33530131  0.42046185     0.25800
C141        C  0.41689152  0.34754067  0.43824496    -0.22200
C142        C  0.43530314  0.31658774  0.43955766     0.20700
F143        F  0.47231777  0.32620887  0.45678068    -0.12200
F144        F  0.43366082  0.24566599  0.42515875    -0.14500
F145        F  0.35857575  0.36386120  0.41858574    -0.14500
F146        F  0.31997373  0.28235740  0.38735193    -0.12200
C147        C  0.20297797  0.06817620  0.40483385     0.25800
C148        C  0.23693802  0.11797240  0.40656295    -0.22300
C149        C  0.22916145  0.14636136  0.42521021     0.20800
C150        C  0.18737542  0.12569148  0.44141547     0.25800
C151        C  0.15278662  0.07590607  0.43957113    -0.22200
C152        C  0.16128629  0.04718053  0.42133628     0.20700
F153        F  0.12879005  0.99907791  0.41898576    -0.12200
F154        F  0.21053091  0.03983780  0.38742977    -0.14500
F155        F  0.18116719  0.15443436  0.45923668    -0.14500
F156        F  0.26152034  0.19452939  0.42721987    -0.12200
C157        C  0.41945562  0.15012478  0.32766486     0.25800
C158        C  0.37913457  0.12145453  0.34440540    -0.22300
C159        C  0.35887323  0.07130978  0.34505291     0.20800
C160        C  0.37889521  0.04993089  0.32914075     0.25800
C161        C  0.41991633  0.07858973  0.31249372    -0.22200
C162        C  0.44001011  0.12905250  0.31200451     0.20700
F163        F  0.47901180  0.15809222  0.29595344    -0.12200
F164        F  0.43939509  0.19872234  0.32683433    -0.14500
F165        F  0.35847553  0.00130541  0.33036065    -0.14500
F166        F  0.31919894  0.04300327  0.36081516    -0.12200
C167        C  0.44846417  0.33805223  0.32843343     0.25800
C168        C  0.41962643  0.34597438  0.31008889    -0.22300
C169        C  0.37001893  0.31053346  0.30772844     0.20800
C170        C  0.34962955  0.26862820  0.32376603     0.25800
C171        C  0.37821541  0.26174768  0.34268927    -0.22200
C172        C  0.42785400  0.29635645  0.34463214     0.20700
F173        F  0.45653647  0.28941160  0.36197783    -0.12200
F174        F  0.49644774  0.37113002  0.33116948    -0.14500
F175        F  0.30170101  0.23519547  0.32121220    -0.14500
F176        F  0.34136876  0.31597617  0.28953483    -0.12200
C177        C  0.20481815  0.13708519  0.34653607     0.25800
C178        C  0.23662401  0.12003071  0.34370223    -0.22300
C179        C  0.22703001  0.08463529  0.32383369     0.20800
C180        C  0.18532224  0.06530451  0.30760584     0.25800
C181        C  0.15285201  0.08166225  0.31072286    -0.22200
C182        C  0.16328324  0.11810645  0.33018039     0.20700
F183        F  0.13282537  0.13473620  0.33377830    -0.12200
F184        F  0.21455585  0.17292817  0.36473602    -0.14500
F185        F  0.17725230  0.03129397  0.28842417    -0.14500
F186        F  0.25775211  0.06828767  0.32040988    -0.12200
C187        C  0.33168009  0.16707031  0.84799312     0.47700
H188        H  0.33171241  0.16644264  0.82508807    -0.01300
C189        C  0.33192222  0.16858044  0.90175872     0.47800
H190        H  0.33204361  0.16923892  0.92466477    -0.01300
C191        C  0.35618532  0.21810959  0.86025634    -0.15000
C192        C  0.28082368  0.14036701  0.86083228    -0.14800
C193        C  0.35799538  0.14403238  0.86112435    -0.15100
C194        C  0.35617495  0.21888477  0.88857359    -0.15100
C195        C  0.28098548  0.14079289  0.88915942    -0.14700
C196        C  0.35831924  0.14499970  0.88939280    -0.15000
C197        C  0.16123053  0.33739728  0.65197763     0.47700
H198        H  0.16122684  0.33685603  0.67491193    -0.01300
C199        C  0.16069684  0.33829547  0.59831741     0.47800
H200        H  0.16044761  0.33850438  0.57537430    -0.01300
C201        C  0.21219302  0.36346683  0.63911824    -0.15000
C202        C  0.13515421  0.28679111  0.63897550    -0.14800
C203        C  0.13617414  0.36252407  0.63991782    -0.15100
C204        C  0.21178403  0.36345839  0.61071759    -0.15100
C205        C  0.13475060  0.28730621  0.61063637    -0.14700
C206        C  0.13616410  0.36336433  0.61152165    -0.15000
O207        O  0.48156230  0.40989232  0.96438598    -0.76200
C208        C  0.10805094  0.05481236  0.95638408     0.84800
O209        O  0.03331589  0.47200135  0.55757063    -0.77400
O210        O  0.05950803  0.11863872  0.51840779    -0.78800
O211        O  0.41842377  0.01747323  0.96267446    -0.78600
O212        O  0.41373100  0.41121345  0.96109162    -0.77300
Zn213      Zn  0.02787422  0.46744811  0.98743331     1.55700
O214        O  0.48985960  0.08622032  0.96231186    -0.78700
Cd215      Cd  0.42957052  0.47033464  0.98543857     1.59700
Cd216      Cd  0.49609005  0.00283836  0.54134865     1.59600
O217        O  0.38050513  0.44648750  0.51750295    -0.78700
O218        O  0.49713558  0.00221708  0.99999877    -1.89200
Cd219      Cd  0.03318000  0.07009700  0.98607902     1.59900
O220        O  0.42522948  0.46397595  0.55566238    -0.78600
O221        O  0.09154352  0.08161693  0.96291045    -0.77300
C222        C  0.05010821  0.44843903  0.54589211     0.85300
C223        C  0.43850528  0.39196651  0.95543493     0.84900
O224        O  0.08727039  0.01088132  0.96414168    -0.76200
C225        C  0.44527552  0.06150181  0.95552161     0.85700
O226        O  0.04879517  0.44301895  0.51977567    -0.76300
C227        C  0.38435450  0.44576924  0.54360996     0.85900
C228        C  0.05263563  0.11424257  0.54438859     0.86200
O229        O  0.02798214  0.07314628  0.55606116    -0.78700
O230        O  0.08818375  0.01643670  0.78652602    -0.76200
C231        C  0.44103309  0.39085768  0.79355912     0.84800
O232        O  0.02924271  0.46567040  0.69385428    -0.77400
O233        O  0.38075629  0.44287996  0.73169142    -0.78800
O234        O  0.48541034  0.08237004  0.78788044    -0.78600
O235        O  0.09114897  0.08652173  0.78695753    -0.77300
Zn236      Zn  0.03037415  0.47091082  0.76369864     1.55700
O237        O  0.41542766  0.01197830  0.78845413    -0.78700
Cd238      Cd  0.03078186  0.07051785  0.76377226     1.59700
Cd239      Cd  0.49728638  0.00258392  0.70885796     1.59600
O240        O  0.05210665  0.11849053  0.73127902    -0.78700
O241        O  0.49720975  0.00242693  0.75018319    -1.89200
Cd242      Cd  0.42897660  0.46738365  0.76411810     1.59900
O243        O  0.03472949  0.07268266  0.69356891    -0.78600
O244        O  0.41442098  0.40735429  0.78664769    -0.77300
C245        C  0.05127087  0.44795326  0.70618196     0.85300
C246        C  0.10832942  0.06048537  0.79385754     0.84900
O247        O  0.48551657  0.41202915  0.78655195    -0.76200
C248        C  0.44138680  0.05629735  0.79545501     0.85700
O249        O  0.05510413  0.44888770  0.73232989    -0.76300
C250        C  0.05213418  0.11379836  0.70517705     0.85900
C251        C  0.38561013  0.44715940  0.70558599     0.86200
O252        O  0.42703466  0.46931211  0.69390058    -0.78700
C253        C  0.04501189  0.16391874  0.58117017     0.25800
C254        C  0.07354373  0.15836697  0.56134261    -0.22300
C255        C  0.12174184  0.19594583  0.55721610     0.20800
C256        C  0.14138147  0.23809142  0.57306413     0.25800
C257        C  0.11295167  0.24349458  0.59304179    -0.22200
C258        C  0.06436229  0.20647069  0.59662445     0.20700
F259        F  0.03546778  0.21184886  0.61479782    -0.12200
F260        F  0.99793591  0.12873411  0.58493309    -0.14500
F261        F  0.18868222  0.27287713  0.56957923    -0.14500
F262        F  0.15025593  0.19116796  0.53844408    -0.12200
C263        C  0.26298260  0.41596909  0.57191915     0.25800
C264        C  0.25545371  0.38306036  0.59294756    -0.22300
C265        C  0.28966557  0.36922257  0.59686569     0.20800
C266        C  0.33201329  0.39006028  0.58100724     0.25800
C267        C  0.33987791  0.42363830  0.56035172    -0.22200
C268        C  0.30472629  0.43585461  0.55561279     0.20700
F269        F  0.31169235  0.46842263  0.53582387    -0.12200
F270        F  0.23070543  0.43014644  0.56778948    -0.14500
F271        F  0.36471499  0.37646665  0.58526764    -0.14500
F272        F  0.28171878  0.33498962  0.61572521    -0.12200
C273        C  0.06012375  0.37918541  0.55801071     0.25800
C274        C  0.07183469  0.42682535  0.56295435    -0.22300
C275        C  0.10519095  0.45383929  0.58388118     0.20800
C276        C  0.12718460  0.43387089  0.59920217     0.25800
C277        C  0.11483968  0.38589482  0.59454970    -0.22200
C278        C  0.08116979  0.35881430  0.57378653     0.20700
F279        F  0.06741077  0.31201278  0.56937488    -0.12200
F280        F  0.02702731  0.35179294  0.53846299    -0.14500
F281        F  0.16119115  0.46172441  0.61823212    -0.14500
F282        F  0.11766703  0.50012763  0.58888335    -0.12200
C283        C  0.10681742  0.16568910  0.66724234     0.25800
C284        C  0.07296921  0.15756191  0.68797687    -0.22300
C285        C  0.06001702  0.19219348  0.69266672     0.20800
C286        C  0.08031276  0.23414320  0.67667830     0.25800
C287        C  0.11430735  0.24239830  0.65600859    -0.22200
C288        C  0.12803765  0.20821567  0.65172528     0.20700
F289        F  0.16285737  0.21653530  0.63300387    -0.12200
F290        F  0.12057819  0.13320562  0.66269884    -0.14500
F291        F  0.06583079  0.26615048  0.68089740    -0.14500
F292        F  0.52662810  0.18469541  0.71221884    -0.12200
C293        C  0.30251606  0.37916164  0.69406378     0.25800
C294        C  0.34165462  0.42586130  0.68845335    -0.22300
C295        C  0.33792184  0.45248427  0.66686496     0.20800
C296        C  0.29537048  0.43297604  0.65137058     0.25800
C297        C  0.25669255  0.38558194  0.65635763    -0.22200
C298        C  0.26065131  0.35894727  0.67792720     0.20700
F299        F  0.22456475  0.31278469  0.68292231    -0.12200
F300        F  0.30541082  0.35254244  0.71468818    -0.14500
F301        F  0.29163139  0.46087018  0.63193196    -0.14700
F302        F  0.37484890  0.49809165  0.66144326    -0.12200
C303        C  0.11964354  0.43543481  0.69540158     0.25800
C304        C  0.07257336  0.42521499  0.68980418    -0.22300
C305        C  0.04552347  0.39225057  0.66879248     0.20800
C306        C  0.06535652  0.37019217  0.65339336     0.25800
C307        C  0.11341975  0.38248249  0.65786842    -0.22200
C308        C  0.14010032  0.41457978  0.67936866     0.20700
F309        F  0.18652169  0.42701193  0.68427030    -0.12200
F310        F  0.14642937  0.46694597  0.71574953    -0.14500
F311        F  0.03732726  0.33627261  0.63437493    -0.14500
F312        F  0.99931883  0.38034548  0.66372880    -0.12200
C313        C  0.35243030  0.08588141  0.92428609     0.25800
C314        C  0.38118503  0.12491649  0.90680347    -0.22300
C315        C  0.43145473  0.14452795  0.90603018     0.20800
C316        C  0.45261521  0.12460062  0.92214352     0.25800
C317        C  0.42363478  0.08423378  0.93908165    -0.22200
C318        C  0.37327092  0.06546199  0.94012482     0.20700
F319        F  0.34405148  0.02765898  0.95679087    -0.12200
F320        F  0.30382491  0.06676055  0.92554421    -0.14500
F321        F  0.50128858  0.14427478  0.92070644    -0.14500
F322        F  0.46010759  0.18337215  0.88989309    -0.12200
C323        C  0.41514818  0.27472642  0.92349153     0.25800
C324        C  0.37686160  0.26328258  0.90547752    -0.22300
C325        C  0.35802129  0.29362783  0.90411253     0.20800
C326        C  0.37764941  0.33530144  0.92046164     0.25800
C327        C  0.41689152  0.34754067  0.93824484    -0.22200
C328        C  0.43530302  0.31658764  0.93955760     0.20700
F329        F  0.47231758  0.32620868  0.95678065    -0.12200
F330        F  0.43366053  0.24566578  0.92515875    -0.14500
F331        F  0.35857609  0.36386149  0.91858541    -0.14500
F332        F  0.31997392  0.28235760  0.88735166    -0.12200
C333        C  0.20297784  0.06817613  0.90483379     0.25800
C334        C  0.23693795  0.11797231  0.90656293    -0.22300
C335        C  0.22916146  0.14636125  0.92521023     0.20800
C336        C  0.18737547  0.12569138  0.94141552     0.25800
C337        C  0.15278660  0.07590600  0.93957113    -0.22200
C338        C  0.16128618  0.04718048  0.92133622     0.20700
F339        F  0.12878986  0.99907788  0.91898565    -0.12200
F340        F  0.21053072  0.03983773  0.88742967    -0.14500
F341        F  0.18116735  0.15443421  0.95923683    -0.14500
F342        F  0.26152037  0.19452928  0.92721990    -0.12200
C343        C  0.41945514  0.15012462  0.82766456     0.25800
C344        C  0.37913449  0.12145443  0.84440539    -0.22300
C345        C  0.35887356  0.07130975  0.84505318     0.20800
C346        C  0.37889554  0.04993088  0.82914101     0.25800
C347        C  0.41991625  0.07858967  0.81249369    -0.22200
C348        C  0.44000963  0.12905236  0.81200421     0.20700
F349        F  0.47901093  0.15809200  0.79595286    -0.12200
F350        F  0.43939421  0.19872211  0.82683376    -0.14500
F351        F  0.35847633  0.00130548  0.83036121    -0.14500
F352        F  0.31919965  0.04300328  0.86081572    -0.12200
C353        C  0.44846405  0.33805202  0.82843329     0.25800
C354        C  0.41962630  0.34597418  0.81008876    -0.22300
C355        C  0.37001879  0.31053328  0.80772833     0.20800
C356        C  0.34962941  0.26862803  0.82376593     0.25800
C357        C  0.37821527  0.26174752  0.84268917    -0.22200
C358        C  0.42785386  0.29635627  0.84463203     0.20700
F359        F  0.45653632  0.28941147  0.86197776    -0.12200
F360        F  0.49644763  0.37112977  0.83116931    -0.14500
F361        F  0.30170085  0.23519534  0.82121215    -0.14500
F362        F  0.34136862  0.31597600  0.78953473    -0.12200
C363        C  0.20481799  0.13708501  0.84653609     0.25800
C364        C  0.23662386  0.12003054  0.84370223    -0.22300
C365        C  0.22702985  0.08463513  0.82383368     0.20800
C366        C  0.18532208  0.06530436  0.80760584     0.25800
C367        C  0.15285184  0.08166208  0.81072287    -0.22200
C368        C  0.16328305  0.11810624  0.83018043     0.20700
F369        F  0.13282514  0.13473593  0.83377837    -0.12200
F370        F  0.21455570  0.17292799  0.86473603    -0.14500
F371        F  0.17725216  0.03129386  0.78842415    -0.14500
F372        F  0.25775196  0.06828752  0.82040987    -0.12200
C373        C  0.33168018  0.66707035  0.34799316     0.47700
H374        H  0.33171251  0.66644270  0.32508808    -0.01300
C375        C  0.33192228  0.66858044  0.40175875     0.47800
H376        H  0.33204366  0.66923890  0.42466486    -0.01300
C377        C  0.35618542  0.71810963  0.36025639    -0.15000
C378        C  0.28082376  0.64036706  0.36083230    -0.14800
C379        C  0.35799544  0.64403239  0.36112439    -0.15100
C380        C  0.35617505  0.71888478  0.38857364    -0.15100
C381        C  0.28098554  0.64079292  0.38915945    -0.14700
C382        C  0.35831928  0.64499968  0.38939284    -0.15000
C383        C  0.16123053  0.83739725  0.15197756     0.47700
H384        H  0.16122684  0.83685601  0.17491194    -0.01300
C385        C  0.16069684  0.83829541  0.09831736     0.47800
H386        H  0.16044760  0.83850429  0.07537421    -0.01300
C387        C  0.21219302  0.86346681  0.13911818    -0.15000
C388        C  0.13515426  0.78679108  0.13897547    -0.14800
C389        C  0.13617410  0.86252400  0.13991776    -0.15100
C390        C  0.21178403  0.86345837  0.11071752    -0.15100
C391        C  0.13475064  0.78730617  0.11063633    -0.14700
C392        C  0.13616407  0.86336425  0.11152158    -0.15000
O393        O  0.48156235  0.90989236  0.46438603    -0.76200
C394        C  0.10805093  0.55481230  0.45638410     0.84800
O395        O  0.03331591  0.97200132  0.05757057    -0.77400
O396        O  0.05950803  0.61863865  0.01840781    -0.78800
O397        O  0.41842368  0.51747311  0.46267457    -0.78600
O398        O  0.41373102  0.91121342  0.46109170    -0.77300
Zn399      Zn  0.02787427  0.96744816  0.48743335     1.55700
O400        O  0.48985952  0.58622018  0.46231191    -0.78700
Cd401      Cd  0.42957052  0.97033463  0.48543864     1.59700
Cd402      Cd  0.49609000  0.50283835  0.04134861     1.59600
O403        O  0.38050510  0.94648754  0.01750281    -0.78700
O404        O  0.49713558  0.50221704  0.49999883    -1.89200
Cd405      Cd  0.03317990  0.57009686  0.48607900     1.59900
O406        O  0.42522942  0.96397593  0.05566225    -0.78600
O407        O  0.09154347  0.58161683  0.46291046    -0.77300
C408        C  0.05010827  0.94843905  0.04589204     0.85300
C409        C  0.43850532  0.89196651  0.45543499     0.84900
O410        O  0.08727040  0.51088125  0.46414171    -0.76200
C411        C  0.44527543  0.56150167  0.45552169     0.85700
O412        O  0.04879526  0.94301901  0.01977560    -0.76300
C413        C  0.38435445  0.94576924  0.04360982     0.85900
C414        C  0.05263564  0.61424250  0.04438862     0.86200
O415        O  0.02798214  0.57314621  0.05606117    -0.78700
O416        O  0.08818385  0.51643676  0.28652603    -0.76200
C417        C  0.44103320  0.89085777  0.29355917     0.84800
O418        O  0.02924285  0.96567047  0.19385428    -0.77400
O419        O  0.38075626  0.94287996  0.23169141    -0.78800
O420        O  0.48541036  0.58237003  0.28788043    -0.78600
O421        O  0.09114905  0.58652178  0.28695750    -0.77300
Zn422      Zn  0.03037422  0.97091081  0.26369865     1.55700
O423        O  0.41542770  0.51197829  0.28845412    -0.78700
Cd424      Cd  0.03078188  0.57051782  0.26377226     1.59700
Cd425      Cd  0.49728644  0.50258395  0.20885794     1.59600
O426        O  0.05210663  0.61849049  0.23127900    -0.78700
O427        O  0.49720979  0.50242695  0.25018317    -1.89200
Cd428      Cd  0.42897660  0.96738364  0.26411808     1.59900
O429        O  0.03472935  0.57268259  0.19356890    -0.78600
O430        O  0.41442107  0.90735434  0.28664771    -0.77300
C431        C  0.05127093  0.94795324  0.20618197     0.85300
C432        C  0.10832951  0.56048545  0.29385752     0.84900
O433        O  0.48551668  0.91202923  0.28655200    -0.76200
C434        C  0.44138684  0.55629733  0.29545502     0.85700
O435        O  0.05510413  0.94888760  0.23232990    -0.76300
C436        C  0.05213409  0.61379830  0.20517703     0.85900
C437        C  0.38561010  0.94715936  0.20558598     0.86200
O438        O  0.42703463  0.96931203  0.19390057    -0.78700
C439        C  0.04501193  0.66391868  0.08117020     0.25800
C440        C  0.07354375  0.65836689  0.06134263    -0.22300
C441        C  0.12174186  0.69594575  0.05721610     0.20800
C442        C  0.14138148  0.73809137  0.07306410     0.25800
C443        C  0.11295170  0.74349453  0.09304177    -0.22200
C444        C  0.06436234  0.70647065  0.09662446     0.20700
F445        F  0.03546784  0.71184885  0.11479782    -0.12200
F446        F  0.99793595  0.62873406  0.08493313    -0.14500
F447        F  0.18868220  0.77287713  0.06957915    -0.14500
F448        F  0.15025594  0.69116785  0.03844409    -0.12200
C449        C  0.26298248  0.91596892  0.07191900     0.25800
C450        C  0.25545371  0.88306034  0.09294748    -0.22300
C451        C  0.28966568  0.86922271  0.09686566     0.20800
C452        C  0.33201336  0.89006041  0.08100719     0.25800
C453        C  0.33987786  0.92363826  0.06035158    -0.22200
C454        C  0.30472614  0.93585444  0.05561261     0.20700
F455        F  0.31169211  0.96842236  0.03582366    -0.12200
F456        F  0.23070523  0.93014615  0.06778928    -0.14500
F457        F  0.36471519  0.87646697  0.08526766    -0.14500
F458        F  0.28171904  0.83498992  0.11572526    -0.12200
C459        C  0.06012385  0.87918544  0.05801059     0.25800
C460        C  0.07183476  0.92682535  0.06295427    -0.22300
C461        C  0.10519100  0.95383926  0.08388112     0.20800
C462        C  0.12718462  0.93387084  0.09920210     0.25800
C463        C  0.11483970  0.88589477  0.09454961    -0.22200
C464        C  0.08116987  0.85881430  0.07378641     0.20700
F465        F  0.06741087  0.81201279  0.06937474    -0.12200
F466        F  0.02702746  0.85179300  0.03846285    -0.14500
F467        F  0.16119116  0.96172432  0.11823207    -0.14500
F468        F  0.11766705  0.00012759  0.08888332    -0.12200
C469        C  0.10681736  0.66568903  0.16724232     0.25800
C470        C  0.07296914  0.65756186  0.18797684    -0.22300
C471        C  0.06001701  0.69219348  0.19266669     0.20800
C472        C  0.08031277  0.73414318  0.17667826     0.25800
C473        C  0.11430738  0.74239826  0.15600856    -0.22200
C474        C  0.12803767  0.70821562  0.15172528     0.20700
F475        F  0.16285744  0.71653525  0.13300391    -0.12200
F476        F  0.12057811  0.63320553  0.16269884    -0.14500
F477        F  0.06583081  0.76615047  0.18089733    -0.14500
F478        F  0.52662798  0.68469520  0.21221863    -0.12200
C479        C  0.30251599  0.87916164  0.19406378     0.25800
C480        C  0.34165459  0.92586127  0.18845332    -0.22300
C481        C  0.33792186  0.95248422  0.16686491     0.20800
C482        C  0.29537051  0.93297600  0.15137051     0.25800
C483        C  0.25669255  0.88558192  0.15635758    -0.22200
C484        C  0.26065124  0.85894729  0.17792719     0.20700
F485        F  0.22456463  0.81278474  0.18292234    -0.12200
F486        F  0.30541070  0.85254246  0.21468820    -0.14500
F487        F  0.29163148  0.96087012  0.13193185    -0.14700
F488        F  0.37484895  0.99809157  0.16144318    -0.12200
C489        C  0.11964353  0.93543466  0.19540158     0.25800
C490        C  0.07257339  0.92521495  0.18980416    -0.22300
C491        C  0.04552352  0.89225064  0.16879242     0.20800
C492        C  0.06535655  0.87019226  0.15339326     0.25800
C493        C  0.11341973  0.88248245  0.15786835    -0.22200
C494        C  0.14010027  0.91457960  0.17936866     0.20700
F495        F  0.18652158  0.92701160  0.18427035    -0.12200
F496        F  0.14642936  0.96694573  0.21574957    -0.14500
F497        F  0.03732730  0.83627285  0.13437476    -0.14500
F498        F  0.99931890  0.88034560  0.16372875    -0.12200
C499        C  0.35243021  0.58588115  0.42428601     0.25800
C500        C  0.38118501  0.62491637  0.40680349    -0.22300
C501        C  0.43145472  0.64452793  0.40603031     0.20800
C502        C  0.45261516  0.62460055  0.42214364     0.25800
C503        C  0.42363469  0.58423361  0.43908169    -0.22200
C504        C  0.37327081  0.56546173  0.44012476     0.20700
F505        F  0.34405131  0.52765860  0.45679074    -0.12200
F506        F  0.30382480  0.56676021  0.42554404    -0.14500
F507        F  0.50128856  0.64427481  0.42070665    -0.14500
F508        F  0.46010765  0.68337226  0.38989333    -0.12200
C509        C  0.41514844  0.77472656  0.42349148     0.25800
C510        C  0.37686169  0.76328259  0.40547757    -0.22300
C511        C  0.35802116  0.79362766  0.40411273     0.20800
C512        C  0.37764925  0.83530124  0.42046185     0.25800
C513        C  0.41689157  0.84754066  0.43824491    -0.22200
C514        C  0.43530328  0.81658779  0.43955754     0.20700
F515        F  0.47231807  0.82620901  0.45678046    -0.12200
F516        F  0.43366094  0.74566604  0.42515860    -0.14500
F517        F  0.35857565  0.86386108  0.41858580    -0.14500
F518        F  0.31997361  0.78235729  0.38735197    -0.12200
C519        C  0.20297796  0.56817612  0.40483386     0.25800
C520        C  0.23693799  0.61797232  0.40656295    -0.22300
C521        C  0.22916140  0.64636128  0.42521020     0.20800
C522        C  0.18737540  0.62569139  0.44141548     0.25800
C523        C  0.15278661  0.57590597  0.43957114    -0.22200
C524        C  0.16128627  0.54718045  0.42133628     0.20700
F525        F  0.12879000  0.49907784  0.41898573    -0.12200
F526        F  0.21053093  0.53983771  0.38742980    -0.14500
F527        F  0.18116718  0.65443424  0.45923671    -0.14500
F528        F  0.26152025  0.69452933  0.42721982    -0.12200
C529        C  0.41945575  0.65012473  0.32766501     0.25800
C530        C  0.37913455  0.62145444  0.34440544    -0.22300
C531        C  0.35887311  0.57130967  0.34505287     0.20800
C532        C  0.37889506  0.54993079  0.32914068     0.25800
C533        C  0.41991630  0.57858966  0.31249374    -0.22200
C534        C  0.44001024  0.62905246  0.31200466     0.20700
F535        F  0.47901212  0.65809224  0.29595372    -0.12200
F536        F  0.43939535  0.69872231  0.32683459    -0.14500
F537        F  0.35847526  0.50130529  0.33036049    -0.14500
F538        F  0.31919876  0.54300315  0.36081508    -0.12200
C539        C  0.44846419  0.83805201  0.32843329     0.25800
C540        C  0.41962642  0.84597428  0.31008884    -0.22300
C541        C  0.37001887  0.81053346  0.30772847     0.20800
C542        C  0.34962947  0.76862821  0.32376607     0.25800
C543        C  0.37821536  0.76174758  0.34268923    -0.22200
C544        C  0.42785400  0.79635621  0.34463199     0.20700
F545        F  0.45653650  0.78941124  0.36197760    -0.12200
F546        F  0.49644781  0.87112969  0.33116925    -0.14500
F547        F  0.30170087  0.73519562  0.32121235    -0.14500
F548        F  0.34136866  0.81597627  0.28953494    -0.12200
C549        C  0.20481817  0.63708520  0.34653603     0.25800
C550        C  0.23662395  0.62003061  0.34370224    -0.22300
C551        C  0.22702989  0.58463513  0.32383373     0.20800
C552        C  0.18532215  0.56530441  0.30760586     0.25800
C553        C  0.15285197  0.58166222  0.31072284    -0.22200
C554        C  0.16328326  0.61810648  0.33018034     0.20700
F555        F  0.13282547  0.63473633  0.33377820    -0.12200
F556        F  0.21455593  0.67292823  0.36473595    -0.14500
F557        F  0.17725219  0.53129386  0.28842420    -0.14500
F558        F  0.25775191  0.56828740  0.32040998    -0.12200
C559        C  0.33168015  0.66707040  0.84799311     0.47700
H560        H  0.33171247  0.66644275  0.82508809    -0.01300
C561        C  0.33192223  0.66858049  0.90175873     0.47800
H562        H  0.33204362  0.66923895  0.92466472    -0.01300
C563        C  0.35618535  0.71810967  0.86025635    -0.15000
C564        C  0.28082373  0.64036707  0.86083227    -0.14800
C565        C  0.35799545  0.64403247  0.86112435    -0.15100
C566        C  0.35617498  0.71888482  0.88857359    -0.15100
C567        C  0.28098550  0.64079293  0.88915941    -0.14700
C568        C  0.35831926  0.64499975  0.88939280    -0.15000
C569        C  0.16123052  0.83739724  0.65197760     0.47700
H570        H  0.16122680  0.83685598  0.67491190    -0.01300
C571        C  0.16069686  0.83829544  0.59831738     0.47800
H572        H  0.16044764  0.83850436  0.57537427    -0.01300
C573        C  0.21219301  0.86346678  0.63911821    -0.15000
C574        C  0.13515420  0.78679107  0.63897547    -0.14800
C575        C  0.13617413  0.86252404  0.63991778    -0.15100
C576        C  0.21178404  0.86345834  0.61071756    -0.15100
C577        C  0.13475059  0.78730619  0.61063634    -0.14700
C578        C  0.13616414  0.86336433  0.61152162    -0.15000
O579        O  0.48156238  0.90989246  0.96438592    -0.76200
C580        C  0.10805090  0.55481231  0.95638407     0.84800
O581        O  0.03331576  0.97200123  0.55757064    -0.77400
O582        O  0.05950800  0.61863867  0.51840778    -0.78800
O583        O  0.41842377  0.51747321  0.96267445    -0.78600
O584        O  0.41373100  0.91121346  0.96109164    -0.77300
Zn585      Zn  0.02787425  0.96744816  0.98743331     1.55700
O586        O  0.48985959  0.58622032  0.96231188    -0.78700
Cd587      Cd  0.42957051  0.97033465  0.98543858     1.59700
Cd588      Cd  0.49609007  0.50283835  0.54134868     1.59600
O589        O  0.38050516  0.94648755  0.51750290    -0.78700
O590        O  0.49713558  0.50221706  0.99999877    -1.89200
Cd591      Cd  0.03317991  0.57009691  0.98607901     1.59900
O592        O  0.42522950  0.96397595  0.55566234    -0.78600
O593        O  0.09154348  0.58161686  0.96291046    -0.77300
C594        C  0.05010822  0.94843903  0.54589211     0.85300
C595        C  0.43850534  0.89196660  0.95543490     0.84900
O596        O  0.08727034  0.51088125  0.96414166    -0.76200
C597        C  0.44527551  0.56150181  0.95552162     0.85700
O598        O  0.04879530  0.94301907  0.51977567    -0.76300
C599        C  0.38435453  0.94576927  0.54360992     0.85900
C600        C  0.05263555  0.61424255  0.54438858     0.86200
O601        O  0.02798205  0.57314628  0.55606116    -0.78700
O602        O  0.08818379  0.51643678  0.78652603    -0.76200
C603        C  0.44103321  0.89085782  0.79355919     0.84800
O604        O  0.02924280  0.96567044  0.69385425    -0.77400
O605        O  0.38075623  0.94287991  0.73169142    -0.78800
O606        O  0.48541044  0.58237014  0.78788042    -0.78600
O607        O  0.09114902  0.58652182  0.78695751    -0.77300
Zn608      Zn  0.03037411  0.97091079  0.76369862     1.55700
O609        O  0.41542778  0.51197838  0.78845415    -0.78700
Cd610      Cd  0.03078189  0.57051789  0.76377225     1.59700
Cd611      Cd  0.49728644  0.50258403  0.70885796     1.59600
O612        O  0.05210664  0.61849055  0.73127900    -0.78700
O613        O  0.49720980  0.50242699  0.75018319    -1.89200
Cd614      Cd  0.42897657  0.96738364  0.76411810     1.59900
O615        O  0.03472929  0.57268260  0.69356891    -0.78600
O616        O  0.41442110  0.90735444  0.78664777    -0.77300
C617        C  0.05127088  0.94795323  0.70618195     0.85300
C618        C  0.10832946  0.56048547  0.79385753     0.84900
O619        O  0.48551666  0.91202922  0.78655198    -0.76200
C620        C  0.44138692  0.55629744  0.79545502     0.85700
O621        O  0.05510408  0.94888761  0.73232988    -0.76300
C622        C  0.05213405  0.61379832  0.70517703     0.85900
C623        C  0.38561009  0.94715931  0.70558599     0.86200
O624        O  0.42703462  0.96931196  0.69390059    -0.78700
C625        C  0.04501181  0.66391876  0.58117014     0.25800
C626        C  0.07354365  0.65836696  0.56134259    -0.22300
C627        C  0.12174178  0.69594579  0.55721609     0.20800
C628        C  0.14138142  0.73809139  0.57306412     0.25800
C629        C  0.11295163  0.74349456  0.59304177    -0.22200
C630        C  0.06436223  0.70647071  0.59662442     0.20700
F631        F  0.03546773  0.71184894  0.61479777    -0.12200
F632        F  0.99793582  0.62873417  0.58493305    -0.14500
F633        F  0.18868216  0.77287710  0.56957921    -0.14500
F634        F  0.15025588  0.69116790  0.53844409    -0.12200
C635        C  0.26298258  0.91596901  0.57191909     0.25800
C636        C  0.25545372  0.88306032  0.59294752    -0.22300
C637        C  0.28966566  0.86922264  0.59686569     0.20800
C638        C  0.33201340  0.89006040  0.58100726     0.25800
C639        C  0.33987795  0.92363832  0.56035169    -0.22200
C640        C  0.30472628  0.93585456  0.55561273     0.20700
F641        F  0.31169233  0.96842258  0.53582382    -0.12200
F642        F  0.23070538  0.93014631  0.56778940    -0.14500
F643        F  0.36471522  0.87646695  0.58526775    -0.14500
F644        F  0.28171893  0.83498975  0.61572525    -0.12200
C645        C  0.06012376  0.87918541  0.55801071     0.25800
C646        C  0.07183472  0.92682535  0.56295435    -0.22300
C647        C  0.10519104  0.95383931  0.58388115     0.20800
C648        C  0.12718472  0.93387092  0.59920211     0.25800
C649        C  0.11483975  0.88589483  0.59454965    -0.22200
C650        C  0.08116983  0.85881431  0.57378651     0.20700
F651        F  0.06741081  0.81201278  0.56937486    -0.12200
F652        F  0.02702725  0.85179291  0.53846303    -0.14500
F653        F  0.16119134  0.96172445  0.61823204    -0.14500
F654        F  0.11766712  0.00012765  0.58888332    -0.12200
C655        C  0.10681727  0.66568901  0.66724230     0.25800
C656        C  0.07296905  0.65756184  0.68797682    -0.22300
C657        C  0.06001684  0.69219341  0.69266664     0.20800
C658        C  0.08031260  0.73414311  0.67667821     0.25800
C659        C  0.11430727  0.74239823  0.65600854    -0.22200
C660        C  0.12803757  0.70821560  0.65172526     0.20700
F661        F  0.16285734  0.71653523  0.63300389    -0.12200
F662        F  0.12057801  0.63320549  0.66269882    -0.14500
F663        F  0.06583056  0.76615036  0.68089724    -0.14500
F664        F  0.52662824  0.68469540  0.71221878    -0.12200
C665        C  0.30251599  0.87916160  0.69406379     0.25800
C666        C  0.34165460  0.92586122  0.68845333    -0.22300
C667        C  0.33792187  0.95248417  0.66686492     0.20800
C668        C  0.29537053  0.93297596  0.65137052     0.25800
C669        C  0.25669254  0.88558190  0.65635760    -0.22200
C670        C  0.26065123  0.85894727  0.67792722     0.20700
F671        F  0.22456458  0.81278476  0.68292240    -0.12200
F672        F  0.30541072  0.85254241  0.71468820    -0.14500
F673        F  0.29163152  0.96087008  0.63193184    -0.14700
F674        F  0.37484895  0.99809154  0.66144320    -0.12200
C675        C  0.11964352  0.93543472  0.69540157     0.25800
C676        C  0.07257336  0.92521495  0.68980416    -0.22300
C677        C  0.04552349  0.89225059  0.66879243     0.20800
C678        C  0.06535654  0.87019220  0.65339330     0.25800
C679        C  0.11341974  0.88248246  0.65786838    -0.22200
C680        C  0.14010029  0.91457969  0.67936865     0.20700
F681        F  0.18652165  0.92701179  0.68427031    -0.12200
F682        F  0.14642935  0.96694585  0.71574953    -0.14500
F683        F  0.03732729  0.83627270  0.63437484    -0.14500
F684        F  0.99931889  0.88034557  0.66372874    -0.12200
C685        C  0.35243026  0.58588131  0.92428602     0.25800
C686        C  0.38118503  0.62491650  0.90680347    -0.22300
C687        C  0.43145475  0.64452808  0.90603027     0.20800
C688        C  0.45261521  0.62460071  0.92214360     0.25800
C689        C  0.42363476  0.58423378  0.93908166    -0.22200
C690        C  0.37327088  0.56546192  0.94012477     0.20700
F691        F  0.34405142  0.52765885  0.95679079    -0.12200
F692        F  0.30382484  0.56676036  0.92554407    -0.14500
F693        F  0.50128861  0.64427497  0.92070658    -0.14500
F694        F  0.46010764  0.68337242  0.88989329    -0.12200
C695        C  0.41514840  0.77472661  0.92349144     0.25800
C696        C  0.37686166  0.76328264  0.90547753    -0.22300
C697        C  0.35802118  0.79362775  0.90411264     0.20800
C698        C  0.37764932  0.83530138  0.92046173     0.25800
C699        C  0.41689161  0.84754077  0.93824481    -0.22200
C700        C  0.43530326  0.81658786  0.93955748     0.20700
F701        F  0.47231800  0.82620906  0.95678042    -0.12200
F702        F  0.43366087  0.74566607  0.92515859    -0.14500
F703        F  0.35857584  0.86386131  0.91858559    -0.14500
F704        F  0.31997362  0.78235737  0.88735189    -0.12200
C705        C  0.20297790  0.56817614  0.90483381     0.25800
C706        C  0.23693794  0.61797234  0.90656291    -0.22300
C707        C  0.22916138  0.64636127  0.92521019     0.20800
C708        C  0.18737540  0.62569137  0.94141549     0.25800
C709        C  0.15278657  0.57590597  0.93957111    -0.22200
C710        C  0.16128621  0.54718046  0.92133622     0.20700
F711        F  0.12878996  0.49907784  0.91898569    -0.12200
F712        F  0.21053084  0.53983774  0.88742971    -0.14500
F713        F  0.18116725  0.65443418  0.95923679    -0.14500
F714        F  0.26152024  0.69452932  0.92721984    -0.12200
C715        C  0.41945545  0.65012478  0.82766472     0.25800
C716        C  0.37913458  0.62145455  0.84440539    -0.22300
C717        C  0.35887345  0.57130983  0.84505303     0.20800
C718        C  0.37889542  0.54993095  0.82914086     0.25800
C719        C  0.41991636  0.57858978  0.81249370    -0.22200
C720        C  0.44000998  0.62905252  0.81200439     0.20700
F721        F  0.47901155  0.65809222  0.79595323    -0.12200
F722        F  0.43939471  0.69872230  0.82683405    -0.14500
F723        F  0.35847596  0.50130551  0.83036089    -0.14500
F724        F  0.31919935  0.54300333  0.86081542    -0.12200
C725        C  0.44846419  0.83805199  0.82843325     0.25800
C726        C  0.41962641  0.84597433  0.81008884    -0.22300
C727        C  0.37001884  0.81053359  0.80772850     0.20800
C728        C  0.34962942  0.76862831  0.82376607     0.25800
C729        C  0.37821531  0.76174761  0.84268920    -0.22200
C730        C  0.42785396  0.79635621  0.84463196     0.20700
F731        F  0.45653642  0.78941123  0.86197759    -0.12200
F732        F  0.49644783  0.87112960  0.83116918    -0.14500
F733        F  0.30170080  0.73519578  0.82121237    -0.14500
F734        F  0.34136863  0.81597652  0.78953503    -0.12200
C735        C  0.20481814  0.63708520  0.84653602     0.25800
C736        C  0.23662393  0.62003062  0.84370221    -0.22300
C737        C  0.22702985  0.58463514  0.82383369     0.20800
C738        C  0.18532207  0.56530436  0.80760586     0.25800
C739        C  0.15285191  0.58166219  0.81072285    -0.22200
C740        C  0.16328322  0.61810647  0.83018034     0.20700
F741        F  0.13282543  0.63473631  0.83377822    -0.12200
F742        F  0.21455596  0.67292829  0.86473590    -0.14500
F743        F  0.17725206  0.53129378  0.78842421    -0.14500
F744        F  0.25775191  0.56828746  0.82040990    -0.12200
C745        C  0.83168011  0.16707041  0.34799315     0.47700
H746        H  0.83171246  0.16644279  0.32508809    -0.01300
C747        C  0.83192217  0.16858044  0.40175875     0.47800
H748        H  0.83204355  0.16923888  0.42466484    -0.01300
C749        C  0.85618532  0.21810966  0.36025640    -0.15000
C750        C  0.78082369  0.14036708  0.36083229    -0.14800
C751        C  0.85799539  0.14403246  0.36112437    -0.15100
C752        C  0.85617493  0.21888479  0.38857365    -0.15100
C753        C  0.78098545  0.14079291  0.38915944    -0.14700
C754        C  0.85831920  0.14499972  0.38939282    -0.15000
C755        C  0.66123056  0.33739723  0.15197758     0.47700
H756        H  0.66122685  0.33685597  0.17491195    -0.01300
C757        C  0.66069688  0.33829543  0.09831738     0.47800
H758        H  0.66044765  0.33850432  0.07537422    -0.01300
C759        C  0.71219306  0.36346677  0.13911820    -0.15000
C760        C  0.63515427  0.28679108  0.13897547    -0.14800
C761        C  0.63617415  0.36252401  0.13991778    -0.15100
C762        C  0.71178407  0.36345834  0.11071754    -0.15100
C763        C  0.63475065  0.28730618  0.11063634    -0.14700
C764        C  0.63616414  0.36336430  0.11152160    -0.15000
O765        O  0.98156227  0.40989240  0.46438598    -0.76200
C766        C  0.60805090  0.05481225  0.45638411     0.84800
O767        O  0.53331571  0.47200118  0.05757063    -0.77400
O768        O  0.55950806  0.11863865  0.01840782    -0.78800
O769        O  0.91842380  0.01747331  0.46267449    -0.78600
O770        O  0.91373089  0.41121341  0.46109172    -0.77300
Zn771      Zn  0.52787428  0.46744813  0.48743336     1.55700
O772        O  0.98985962  0.08622040  0.46231187    -0.78700
Cd773      Cd  0.92957046  0.47033461  0.48543868     1.59700
Cd774      Cd  0.99609013  0.00283844  0.04134860     1.59600
O775        O  0.88050510  0.44648761  0.01750281    -0.78700
O776        O  0.99713560  0.00221712  0.49999878    -1.89200
Cd777      Cd  0.53317991  0.07009686  0.48607903     1.59900
O778        O  0.92522943  0.46397603  0.05566225    -0.78600
O779        O  0.59154346  0.08161680  0.46291048    -0.77300
C780        C  0.55010821  0.44843902  0.04589210     0.85300
C781        C  0.93850521  0.39196653  0.45543498     0.84900
O782        O  0.58727036  0.01088121  0.46414171    -0.76200
C783        C  0.94527554  0.06150189  0.45552163     0.85700
O784        O  0.54879531  0.44301907  0.01977566    -0.76300
C785        C  0.88435446  0.44576934  0.04360982     0.85900
C786        C  0.55263561  0.11424249  0.04438862     0.86200
O787        O  0.52798205  0.07314620  0.05606117    -0.78700
O788        O  0.58818392  0.01643675  0.28652591    -0.76200
C789        C  0.94103320  0.39085781  0.29355926     0.84800
O790        O  0.52924271  0.46567029  0.19385424    -0.77400
O791        O  0.88075624  0.44287987  0.23169144    -0.78800
O792        O  0.98541041  0.08237013  0.28788046    -0.78600
O793        O  0.59114905  0.08652174  0.28695746    -0.77300
Zn794      Zn  0.53037419  0.47091083  0.26369861     1.55700
O795        O  0.91542774  0.01197839  0.28845415    -0.78700
Cd796      Cd  0.53078192  0.07051784  0.26377222     1.59700
Cd797      Cd  0.99728646  0.00258401  0.20885800     1.59600
O798        O  0.55210670  0.11849053  0.23127898    -0.78700
O799        O  0.99720982  0.00242699  0.25018323    -1.89200
Cd800      Cd  0.92897657  0.46738362  0.26411813     1.59900
O801        O  0.53472940  0.07268264  0.19356887    -0.78600
O802        O  0.91442109  0.40735440  0.28664781    -0.77300
C803        C  0.55127082  0.44795310  0.20618194     0.85300
C804        C  0.60832955  0.06048542  0.29385744     0.84900
O805        O  0.98551666  0.41202923  0.28655206    -0.76200
C806        C  0.94138687  0.05629744  0.29545503     0.85700
O807        O  0.55510406  0.44888754  0.23232987    -0.76300
C808        C  0.55213416  0.11379834  0.20517701     0.85900
C809        C  0.88561011  0.44715926  0.20558600     0.86200
O810        O  0.92703465  0.46931193  0.19390061    -0.78700
C811        C  0.54501190  0.16391872  0.08117018     0.25800
C812        C  0.57354374  0.15836689  0.06134265    -0.22300
C813        C  0.62174188  0.19594570  0.05721615     0.20800
C814        C  0.64138152  0.23809131  0.07306417     0.25800
C815        C  0.61295171  0.24349453  0.09304179    -0.22200
C816        C  0.56436232  0.20647069  0.09662445     0.20700
F817        F  0.53546782  0.21184894  0.11479779    -0.12200
F818        F  0.49793590  0.12873413  0.08493310    -0.14500
F819        F  0.68868228  0.27287700  0.06957928    -0.14500
F820        F  0.65025598  0.19116777  0.03844417    -0.12200
C821        C  0.76298251  0.41596898  0.07191905     0.25800
C822        C  0.75545374  0.38306034  0.09294750    -0.22300
C823        C  0.78966572  0.36922271  0.09686565     0.20800
C824        C  0.83201341  0.39006047  0.08100718     0.25800
C825        C  0.83987788  0.42363834  0.06035159    -0.22200
C826        C  0.80472615  0.43585451  0.05561265     0.20700
F827        F  0.81169208  0.46842243  0.03582370    -0.12200
F828        F  0.73070529  0.43014627  0.06778941    -0.14500
F829        F  0.86471529  0.37646709  0.08526764    -0.14500
F830        F  0.78171908  0.33498987  0.11572522    -0.12200
C831        C  0.56012393  0.37918549  0.05801061     0.25800
C832        C  0.57183471  0.42682535  0.06295434    -0.22300
C833        C  0.60519084  0.45383922  0.08388124     0.20800
C834        C  0.62718454  0.43387084  0.09920220     0.25800
C835        C  0.61483975  0.38589482  0.09454965    -0.22200
C836        C  0.58116997  0.35881437  0.07378642     0.20700
F837        F  0.56741105  0.31201288  0.06937471    -0.12200
F838        F  0.52702762  0.35179308  0.03846282    -0.14500
F839        F  0.66119098  0.46172430  0.11823221    -0.14500
F840        F  0.61766673  0.50012748  0.08888352    -0.12200
C841        C  0.60681759  0.16568917  0.16724239     0.25800
C842        C  0.57296921  0.15756189  0.18797683    -0.22300
C843        C  0.56001685  0.19219336  0.19266658     0.20800
C844        C  0.58031261  0.23414307  0.17667816     0.25800
C845        C  0.61430739  0.24239826  0.15600855    -0.22200
C846        C  0.62803784  0.20821573  0.15172533     0.20700
F847        F  0.66285772  0.21653546  0.13300402    -0.12200
F848        F  0.62057854  0.13320579  0.16269902    -0.14500
F849        F  0.56583047  0.26615024  0.18089714    -0.14500
F850        F  0.02662800  0.18469524  0.21221870    -0.12200
C851        C  0.80251601  0.37916154  0.19406379     0.25800
C852        C  0.84165463  0.42586116  0.18845333    -0.22300
C853        C  0.83792192  0.45248411  0.16686491     0.20800
C854        C  0.79537057  0.43297592  0.15137052     0.25800
C855        C  0.75669258  0.38558185  0.15635759    -0.22200
C856        C  0.76065127  0.35894721  0.17792721     0.20700
F857        F  0.72456464  0.31278468  0.18292236    -0.12200
F858        F  0.80541072  0.35254236  0.21468821    -0.14500
F859        F  0.79163155  0.46087006  0.13193186    -0.14700
F860        F  0.87484903  0.49809145  0.16144317    -0.12200
C861        C  0.61964346  0.43543460  0.19540159     0.25800
C862        C  0.57257329  0.42521480  0.18980417    -0.22300
C863        C  0.54552343  0.39225044  0.16879244     0.20800
C864        C  0.56535651  0.37019210  0.15339329     0.25800
C865        C  0.61341972  0.38248238  0.15786838    -0.22200
C866        C  0.64010025  0.41457959  0.17936866     0.20700
F867        F  0.68652160  0.42701169  0.18427033    -0.12200
F868        F  0.64642927  0.46694572  0.21574955    -0.14500
F869        F  0.53732730  0.33627267  0.13437479    -0.14500
F870        F  0.49931878  0.38034534  0.16372878    -0.12200
C871        C  0.85243026  0.08588139  0.42428609     0.25800
C872        C  0.88118499  0.12491649  0.40680348    -0.22300
C873        C  0.93145469  0.14452802  0.40603021     0.20800
C874        C  0.95261519  0.12460070  0.42214355     0.25800
C875        C  0.92363478  0.08423385  0.43908167    -0.22200
C876        C  0.87327092  0.06546204  0.44012484     0.20700
F877        F  0.84405150  0.02765905  0.45679092    -0.12200
F878        F  0.80382486  0.06676050  0.42554420    -0.14500
F879        F  0.00128857  0.14427491  0.42070647    -0.14500
F880        F  0.96010755  0.18337228  0.38989317    -0.12200
C881        C  0.91514818  0.27472647  0.42349158     0.25800
C882        C  0.87686155  0.26328258  0.40547760    -0.22300
C883        C  0.85802113  0.29362773  0.40411267     0.20800
C884        C  0.87764923  0.33530134  0.42046178     0.25800
C885        C  0.91689144  0.34754067  0.43824491    -0.22200
C886        C  0.93530301  0.31658770  0.43955764     0.20700
F887        F  0.97231762  0.32620880  0.45678067    -0.12200
F888        F  0.93366059  0.24566587  0.42515878    -0.14500
F889        F  0.85857577  0.36386128  0.41858562    -0.14500
F890        F  0.81997365  0.28235740  0.38735187    -0.12200
C891        C  0.70297786  0.06817611  0.40483382     0.25800
C892        C  0.73693791  0.11797231  0.40656293    -0.22300
C893        C  0.72916138  0.14636123  0.42521024     0.20800
C894        C  0.68737540  0.12569131  0.44141554     0.25800
C895        C  0.65278657  0.07590592  0.43957115    -0.22200
C896        C  0.66128620  0.04718042  0.42133625     0.20700
F897        F  0.62878994  0.99907780  0.41898570    -0.12200
F898        F  0.71053080  0.03983773  0.38742971    -0.14500
F899        F  0.68116726  0.15443411  0.45923687    -0.14500
F900        F  0.76152026  0.19452926  0.42721992    -0.12200
C901        C  0.91945557  0.15012481  0.32766486     0.25800
C902        C  0.87913451  0.12145454  0.34440540    -0.22300
C903        C  0.85887319  0.07130980  0.34505290     0.20800
C904        C  0.87889517  0.04993092  0.32914074     0.25800
C905        C  0.91991630  0.07858978  0.31249371    -0.22200
C906        C  0.94001007  0.12905254  0.31200451     0.20700
F907        F  0.97901178  0.15809228  0.29595346    -0.12200
F908        F  0.93939502  0.19872236  0.32683434    -0.14500
F909        F  0.85847550  0.00130544  0.33036063    -0.14500
F910        F  0.81919890  0.04300328  0.36081516    -0.12200
C911        C  0.94846413  0.33805211  0.32843343     0.25800
C912        C  0.91962641  0.34597433  0.31008891    -0.22300
C913        C  0.87001889  0.31053346  0.30772846     0.20800
C914        C  0.84962946  0.26862820  0.32376604     0.25800
C915        C  0.87821530  0.26174761  0.34268926    -0.22200
C916        C  0.92785391  0.29635629  0.34463211     0.20700
F917        F  0.95653635  0.28941136  0.36197778    -0.12200
F918        F  0.99644772  0.37112984  0.33116947    -0.14500
F919        F  0.80170089  0.23519554  0.32121224    -0.14500
F920        F  0.84136876  0.31597624  0.28953485    -0.12200
C921        C  0.70481798  0.13708502  0.34653606     0.25800
C922        C  0.73662390  0.12003060  0.34370222    -0.22300
C923        C  0.72702997  0.08463524  0.32383364     0.20800
C924        C  0.68532225  0.06530449  0.30760575     0.25800
C925        C  0.65285198  0.08166217  0.31072278    -0.22200
C926        C  0.66328310  0.11810628  0.33018036     0.20700
F927        F  0.63282515  0.13473592  0.33377830    -0.12200
F928        F  0.71455560  0.17292793  0.36473604    -0.14500
F929        F  0.67725241  0.03129404  0.28842405    -0.14500
F930        F  0.75775210  0.06828765  0.32040986    -0.12200
C931        C  0.83168007  0.16707035  0.84799316     0.47700
H932        H  0.83171239  0.16644269  0.82508811    -0.01300
C933        C  0.83192220  0.16858048  0.90175876     0.47800
H934        H  0.83204361  0.16923896  0.92466481    -0.01300
C935        C  0.85618531  0.21810963  0.86025638    -0.15000
C936        C  0.78082366  0.14036706  0.86083232    -0.14800
C937        C  0.85799535  0.14403241  0.86112439    -0.15100
C938        C  0.85617494  0.21888480  0.88857363    -0.15100
C939        C  0.78098546  0.14079293  0.88915947    -0.14700
C940        C  0.85831921  0.14499973  0.88939284    -0.15000
C941        C  0.66123048  0.33739721  0.65197762     0.47700
H942        H  0.66122673  0.33685596  0.67491191    -0.01300
C943        C  0.66069690  0.33829539  0.59831739     0.47800
H944        H  0.66044771  0.33850429  0.57537429    -0.01300
C945        C  0.71219299  0.36346673  0.63911825    -0.15000
C946        C  0.63515416  0.28679103  0.63897549    -0.14800
C947        C  0.63617414  0.36252403  0.63991777    -0.15100
C948        C  0.71178406  0.36345827  0.61071760    -0.15100
C949        C  0.63475059  0.28730613  0.61063636    -0.14700
C950        C  0.63616418  0.36336430  0.61152160    -0.15000
O951        O  0.98156228  0.40989240  0.96438595    -0.76200
C952        C  0.60805094  0.05481232  0.95638414     0.84800
O953        O  0.53331587  0.47200124  0.55757064    -0.77400
O954        O  0.55950806  0.11863864  0.51840780    -0.78800
O955        O  0.91842387  0.01747343  0.96267454    -0.78600
O956        O  0.91373094  0.41121346  0.96109166    -0.77300
Zn957      Zn  0.52787424  0.46744808  0.98743334     1.55700
O958        O  0.98985972  0.08622049  0.96231190    -0.78700
Cd959      Cd  0.92957051  0.47033468  0.98543857     1.59700
Cd960      Cd  0.99609005  0.00283840  0.54134863     1.59600
O961        O  0.88050517  0.44648751  0.51750297    -0.78700
O962        O  0.99713564  0.00221716  0.99999876    -1.89200
Cd963      Cd  0.53317991  0.07009690  0.98607902     1.59900
O964        O  0.92522957  0.46397595  0.55566239    -0.78600
O965        O  0.59154350  0.08161688  0.96291050    -0.77300
C966        C  0.55010832  0.44843905  0.54589209     0.85300
C967        C  0.93850523  0.39196654  0.95543494     0.84900
O968        O  0.58727039  0.01088127  0.96414172    -0.76200
C969        C  0.94527563  0.06150201  0.95552168     0.85700
O970        O  0.54879535  0.44301907  0.51977565    -0.76300
C971        C  0.88435458  0.44576923  0.54360998     0.85900
C972        C  0.55263557  0.11424251  0.54438860     0.86200
O973        O  0.52798204  0.07314624  0.55606116    -0.78700
O974        O  0.58818383  0.01643669  0.78652600    -0.76200
C975        C  0.94103319  0.39085776  0.79355919     0.84800
O976        O  0.52924276  0.46567046  0.69385423    -0.77400
O977        O  0.88075620  0.44287983  0.73169149    -0.78800
O978        O  0.98541031  0.08237010  0.78788044    -0.78600
O979        O  0.59114900  0.08652171  0.78695750    -0.77300
Zn980      Zn  0.53037413  0.47091077  0.76369861     1.55700
O981        O  0.91542763  0.01197835  0.78845413    -0.78700
Cd982      Cd  0.53078186  0.07051780  0.76377225     1.59700
Cd983      Cd  0.99728645  0.00258402  0.70885797     1.59600
O984        O  0.55210658  0.11849048  0.73127901    -0.78700
O985        O  0.99720974  0.00242698  0.75018319    -1.89200
Cd986      Cd  0.92897657  0.46738363  0.76411815     1.59900
O987        O  0.53472926  0.07268256  0.69356891    -0.78600
O988        O  0.91442107  0.40735436  0.78664778    -0.77300
C989        C  0.55127090  0.44795328  0.70618191     0.85300
C990        C  0.60832947  0.06048537  0.79385752     0.84900
O991        O  0.98551666  0.41202921  0.78655200    -0.76200
C992        C  0.94138677  0.05629740  0.79545501     0.85700
O993        O  0.55510413  0.44888767  0.73232984    -0.76300
C994        C  0.55213399  0.11379827  0.70517704     0.85900
C995        C  0.88561003  0.44715926  0.70558606     0.86200
O996        O  0.92703456  0.46931199  0.69390065    -0.78700
C997        C  0.54501178  0.16391875  0.58117011     0.25800
C998        C  0.57354366  0.15836691  0.56134260    -0.22300
C999        C  0.62174182  0.19594570  0.55721613     0.20800
C1000       C  0.64138145  0.23809130  0.57306416     0.25800
C1001       C  0.61295163  0.24349450  0.59304179    -0.22200
C1002       C  0.56436222  0.20647069  0.59662440     0.20700
F1003       F  0.53546769  0.21184892  0.61479774    -0.12200
F1004       F  0.49793575  0.12873422  0.58493294    -0.14500
F1005       F  0.68868221  0.27287698  0.56957928    -0.14500
F1006       F  0.65025593  0.19116778  0.53844416    -0.12200
C1007       C  0.76298262  0.41596892  0.57191915     0.25800
C1008       C  0.75545378  0.38306027  0.59294760    -0.22300
C1009       C  0.78966574  0.36922261  0.59686579     0.20800
C1010       C  0.83201347  0.39006036  0.58100734     0.25800
C1011       C  0.83987801  0.42363828  0.56035176    -0.22200
C1012       C  0.80472634  0.43585451  0.55561281     0.20700
F1013       F  0.81169238  0.46842253  0.53582390    -0.12200
F1014       F  0.73070538  0.43014616  0.56778942    -0.14500
F1015       F  0.86471528  0.37646690  0.58526782    -0.14500
F1016       F  0.78171903  0.33498975  0.61572536    -0.12200
C1017       C  0.56012391  0.37918546  0.55801064     0.25800
C1018       C  0.57183485  0.42682539  0.56295431    -0.22300
C1019       C  0.60519115  0.45383933  0.58388112     0.20800
C1020       C  0.62718480  0.43387092  0.59920210     0.25800
C1021       C  0.61483987  0.38589484  0.59454961    -0.22200
C1022       C  0.58117001  0.35881436  0.57378642     0.20700
F1023       F  0.56741104  0.31201286  0.56937473    -0.12200
F1024       F  0.52702738  0.35179297  0.53846297    -0.14500
F1025       F  0.66119133  0.46172439  0.61823208    -0.14500
F1026       F  0.61766723  0.50012767  0.58888332    -0.12200
C1027       C  0.60681719  0.16568895  0.66724231     0.25800
C1028       C  0.57296900  0.15756180  0.68797685    -0.22300
C1029       C  0.56001685  0.19219342  0.69266669     0.20800
C1030       C  0.58031262  0.23414312  0.67667826     0.25800
C1031       C  0.61430725  0.24239821  0.65600858    -0.22200
C1032       C  0.62803752  0.20821556  0.65172529     0.20700
F1033       F  0.66285733  0.21653520  0.63300395    -0.12200
F1034       F  0.62057785  0.13320539  0.66269880    -0.14500
F1035       F  0.56583064  0.26615040  0.68089732    -0.14500
F1036       F  0.02662820  0.18469540  0.71221884    -0.12200
C1037       C  0.80251589  0.37916157  0.69406388     0.25800
C1038       C  0.84165452  0.42586118  0.68845341    -0.22300
C1039       C  0.83792180  0.45248413  0.66686500     0.20800
C1040       C  0.79537046  0.43297593  0.65137060     0.25800
C1041       C  0.75669248  0.38558186  0.65635767    -0.22200
C1042       C  0.76065113  0.35894724  0.67792731     0.20700
F1043       F  0.72456448  0.31278472  0.68292247    -0.12200
F1044       F  0.80541060  0.35254237  0.71468829    -0.14500
F1045       F  0.79163146  0.46087006  0.63193193    -0.14700
F1046       F  0.87484892  0.49809147  0.66144326    -0.12200
C1047       C  0.61964353  0.43543477  0.69540153     0.25800
C1048       C  0.57257338  0.42521503  0.68980410    -0.22300
C1049       C  0.54552354  0.39225070  0.66879236     0.20800
C1050       C  0.56535658  0.37019231  0.65339323     0.25800
C1051       C  0.61341976  0.38248251  0.65786834    -0.22200
C1052       C  0.64010029  0.41457970  0.67936863     0.20700
F1053       F  0.68652160  0.42701170  0.68427035    -0.12200
F1054       F  0.64642935  0.46694589  0.71574950    -0.14500
F1055       F  0.53732735  0.33627286  0.63437473    -0.14500
F1056       F  0.49931893  0.38034567  0.66372866    -0.12200
C1057       C  0.85243034  0.08588151  0.92428617     0.25800
C1058       C  0.88118504  0.12491655  0.90680351    -0.22300
C1059       C  0.93145474  0.14452804  0.90603022     0.20800
C1060       C  0.95261526  0.12460077  0.92214357     0.25800
C1061       C  0.92363487  0.08423398  0.93908174    -0.22200
C1062       C  0.87327101  0.06546220  0.94012494     0.20700
F1063       F  0.84405162  0.02765927  0.95679106    -0.12200
F1064       F  0.80382493  0.06676060  0.92554429    -0.14500
F1065       F  0.00128863  0.14427494  0.92070646    -0.14500
F1066       F  0.96010756  0.18337220  0.88989310    -0.12200
C1067       C  0.91514828  0.27472655  0.92349149     0.25800
C1068       C  0.87686156  0.26328259  0.90547756    -0.22300
C1069       C  0.85802103  0.29362766  0.90411270     0.20800
C1070       C  0.87764913  0.33530127  0.92046181     0.25800
C1071       C  0.91689144  0.34754067  0.93824488    -0.22200
C1072       C  0.93530308  0.31658776  0.93955757     0.20700
F1073       F  0.97231775  0.32620890  0.95678055    -0.12200
F1074       F  0.93366079  0.24566604  0.92515861    -0.14500
F1075       F  0.85857554  0.36386111  0.91858573    -0.14500
F1076       F  0.81997348  0.28235727  0.88735194    -0.12200
C1077       C  0.70297781  0.06817616  0.90483381     0.25800
C1078       C  0.73693794  0.11797233  0.90656298    -0.22300
C1079       C  0.72916148  0.14636124  0.92521033     0.20800
C1080       C  0.68737551  0.12569134  0.94141564     0.25800
C1081       C  0.65278662  0.07590598  0.93957120    -0.22200
C1082       C  0.66128616  0.04718049  0.92133625     0.20700
F1083       F  0.62878982  0.99907790  0.91898564    -0.12200
F1084       F  0.71053062  0.03983780  0.88742961    -0.14500
F1085       F  0.68116741  0.15443414  0.95923699    -0.14500
F1086       F  0.76152040  0.19452926  0.92722003    -0.12200
C1087       C  0.91945511  0.15012467  0.82766460     0.25800
C1088       C  0.87913446  0.12145447  0.84440542    -0.22300
C1089       C  0.85887353  0.07130978  0.84505320     0.20800
C1090       C  0.87889551  0.04993092  0.82914102     0.25800
C1091       C  0.91991622  0.07858972  0.81249370    -0.22200
C1092       C  0.94000960  0.12905241  0.81200423     0.20700
F1093       F  0.97901088  0.15809205  0.79595287    -0.12200
F1094       F  0.93939418  0.19872215  0.82683380    -0.14500
F1095       F  0.85847628  0.00130552  0.83036120    -0.14500
F1096       F  0.81919960  0.04300330  0.86081572    -0.12200
C1097       C  0.94846410  0.33805213  0.82843342     0.25800
C1098       C  0.91962641  0.34597425  0.81008882    -0.22300
C1099       C  0.87001894  0.31053328  0.80772828     0.20800
C1100       C  0.84962951  0.26862803  0.82376588     0.25800
C1101       C  0.87821530  0.26174757  0.84268921    -0.22200
C1102       C  0.92785388  0.29635635  0.84463213     0.20700
F1103       F  0.95653629  0.28941156  0.86197790    -0.12200
F1104       F  0.99644765  0.37112994  0.83116951    -0.14500
F1105       F  0.80170099  0.23519528  0.82121200    -0.14500
F1106       F  0.84136886  0.31597595  0.78953459    -0.12200
C1107       C  0.70481788  0.13708491  0.84653616     0.25800
C1108       C  0.73662385  0.12003056  0.84370226    -0.22300
C1109       C  0.72702996  0.08463528  0.82383364     0.20800
C1110       C  0.68532222  0.06530451  0.80760577     0.25800
C1111       C  0.65285188  0.08166210  0.81072286    -0.22200
C1112       C  0.66328297  0.11810614  0.83018047     0.20700
F1113       F  0.63282496  0.13473571  0.83377845    -0.12200
F1114       F  0.71455549  0.17292781  0.86473614    -0.14500
F1115       F  0.67725244  0.03129418  0.78842401    -0.14500
F1116       F  0.75775217  0.06828780  0.82040979    -0.12200
C1117       C  0.83168018  0.66707044  0.34799314     0.47700
H1118       H  0.83171254  0.66644282  0.32508808    -0.01300
C1119       C  0.83192221  0.66858044  0.40175874     0.47800
H1120       H  0.83204357  0.66923886  0.42466483    -0.01300
C1121       C  0.85618542  0.71810969  0.36025641    -0.15000
C1122       C  0.78082375  0.64036714  0.36083227    -0.14800
C1123       C  0.85799541  0.64403243  0.36112437    -0.15100
C1124       C  0.85617501  0.71888480  0.38857365    -0.15100
C1125       C  0.78098550  0.64079295  0.38915942    -0.14700
C1126       C  0.85831922  0.64499969  0.38939282    -0.15000
C1127       C  0.66123058  0.83739726  0.15197757     0.47700
H1128       H  0.66122686  0.83685600  0.17491192    -0.01300
C1129       C  0.66069692  0.83829543  0.09831736     0.47800
H1130       H  0.66044770  0.83850432  0.07537422    -0.01300
C1131       C  0.71219307  0.86346684  0.13911819    -0.15000
C1132       C  0.63515430  0.78679109  0.13897546    -0.14800
C1133       C  0.63617416  0.86252403  0.13991776    -0.15100
C1134       C  0.71178410  0.86345839  0.11071753    -0.15100
C1135       C  0.63475070  0.78730618  0.11063633    -0.14700
C1136       C  0.63616415  0.86336429  0.11152158    -0.15000
O1137       O  0.98156231  0.90989242  0.46438600    -0.76200
C1138       C  0.60805092  0.55481235  0.45638409     0.84800
O1139       O  0.53331576  0.97200117  0.05757058    -0.77400
O1140       O  0.55950814  0.61863864  0.01840781    -0.78800
O1141       O  0.91842366  0.51747318  0.46267459    -0.78600
O1142       O  0.91373097  0.91121348  0.46109169    -0.77300
Zn1143     Zn  0.52787425  0.96744809  0.48743337     1.55700
O1144       O  0.98985957  0.58622018  0.46231180    -0.78700
Cd1145     Cd  0.92957053  0.97033473  0.48543861     1.59700
Cd1146     Cd  0.99609001  0.50283835  0.04134861     1.59600
O1147       O  0.88050521  0.94648767  0.01750285    -0.78700
O1148       O  0.99713556  0.50221706  0.49999880    -1.89200
Cd1149     Cd  0.53317989  0.57009684  0.48607905     1.59900
O1150       O  0.92522955  0.96397606  0.05566228    -0.78600
O1151       O  0.59154348  0.58161689  0.46291049    -0.77300
C1152       C  0.55010821  0.94843897  0.04589205     0.85300
C1153       C  0.93850526  0.89196656  0.45543498     0.84900
O1154       O  0.58727038  0.51088129  0.46414167    -0.76200
C1155       C  0.94527544  0.56150171  0.45552164     0.85700
O1156       O  0.54879526  0.94301899  0.01977561    -0.76300
C1157       C  0.88435457  0.94576938  0.04360986     0.85900
C1158       C  0.55263567  0.61424250  0.04438861     0.86200
O1159       O  0.52798210  0.57314622  0.05606117    -0.78700
O1160       O  0.58818394  0.51643688  0.28652593    -0.76200
C1161       C  0.94103323  0.89085787  0.29355926     0.84800
O1162       O  0.52924282  0.96567047  0.19385419    -0.77400
O1163       O  0.88075627  0.94287989  0.23169144    -0.78800
O1164       O  0.98541035  0.58237005  0.28788046    -0.78600
O1165       O  0.59114906  0.58652186  0.28695745    -0.77300
Zn1166     Zn  0.53037417  0.97091077  0.26369857     1.55700
O1167       O  0.91542768  0.51197831  0.28845416    -0.78700
Cd1168     Cd  0.53078188  0.57051784  0.26377220     1.59700
Cd1169     Cd  0.99728643  0.50258395  0.20885799     1.59600
O1170       O  0.55210660  0.61849048  0.23127894    -0.78700
O1171       O  0.99720977  0.50242693  0.25018322    -1.89200
Cd1172     Cd  0.92897662  0.96738367  0.26411813     1.59900
O1173       O  0.53472949  0.57268258  0.19356884    -0.78600
O1174       O  0.91442112  0.90735446  0.28664781    -0.77300
C1175       C  0.55127087  0.94795321  0.20618188     0.85300
C1176       C  0.60832957  0.56048556  0.29385744     0.84900
O1177       O  0.98551669  0.91202927  0.28655205    -0.76200
C1178       C  0.94138682  0.55629736  0.29545505     0.85700
O1179       O  0.55510402  0.94888755  0.23232981    -0.76300
C1180       C  0.55213415  0.61379828  0.20517697     0.85900
C1181       C  0.88561013  0.94715935  0.20558601     0.86200
O1182       O  0.92703468  0.96931208  0.19390062    -0.78700
C1183       C  0.54501194  0.66391876  0.08117013     0.25800
C1184       C  0.57354380  0.65836690  0.06134262    -0.22300
C1185       C  0.62174196  0.69594569  0.05721615     0.20800
C1186       C  0.64138159  0.73809131  0.07306416     0.25800
C1187       C  0.61295177  0.74349453  0.09304177    -0.22200
C1188       C  0.56436236  0.70647072  0.09662439     0.20700
F1189       F  0.53546782  0.71184901  0.11479769    -0.12200
F1190       F  0.49793590  0.62873423  0.08493298    -0.14500
F1191       F  0.68868234  0.77287701  0.06957927    -0.14500
F1192       F  0.65025605  0.69116777  0.03844416    -0.12200
C1193       C  0.76298256  0.91596897  0.07191901     0.25800
C1194       C  0.75545379  0.88306040  0.09294750    -0.22300
C1195       C  0.78966580  0.86922281  0.09686569     0.20800
C1196       C  0.83201352  0.89006057  0.08100724     0.25800
C1197       C  0.83987799  0.92363841  0.06035163    -0.22200
C1198       C  0.80472624  0.93585453  0.05561264     0.20700
F1199       F  0.81169218  0.96842242  0.03582366    -0.12200
F1200       F  0.73070528  0.93014616  0.06778928    -0.14500
F1201       F  0.86471539  0.87646720  0.08526774    -0.14500
F1202       F  0.78171915  0.83498999  0.11572527    -0.12200
C1203       C  0.56012393  0.87918543  0.05801057     0.25800
C1204       C  0.57183473  0.92682531  0.06295428    -0.22300
C1205       C  0.60519093  0.95383922  0.08388114     0.20800
C1206       C  0.62718461  0.93387084  0.09920212     0.25800
C1207       C  0.61483977  0.88589480  0.09454961    -0.22200
C1208       C  0.58116998  0.85881432  0.07378639     0.20700
F1209       F  0.56741108  0.81201284  0.06937469    -0.12200
F1210       F  0.52702763  0.85179301  0.03846279    -0.14500
F1211       F  0.66119112  0.96172434  0.11823210    -0.14500
F1212       F  0.61766692  0.00012752  0.08888336    -0.12200
C1213       C  0.60681752  0.66568909  0.16724232     0.25800
C1214       C  0.57296919  0.65756182  0.18797678    -0.22300
C1215       C  0.56001689  0.69219333  0.19266657     0.20800
C1216       C  0.58031265  0.73414305  0.17667816     0.25800
C1217       C  0.61430742  0.74239826  0.15600854    -0.22200
C1218       C  0.62803784  0.70821570  0.15172530     0.20700
F1219       F  0.66285774  0.71653545  0.13300400    -0.12200
F1220       F  0.62057835  0.63320563  0.16269886    -0.14500
F1221       F  0.56583053  0.76615023  0.18089716    -0.14500
F1222       F  0.02662827  0.68469548  0.21221884    -0.12200
C1223       C  0.80251605  0.87916161  0.19406375     0.25800
C1224       C  0.84165463  0.92586127  0.18845334    -0.22300
C1225       C  0.83792187  0.95248427  0.16686496     0.20800
C1226       C  0.79537054  0.93297605  0.15137055     0.25800
C1227       C  0.75669258  0.88558196  0.15635759    -0.22200
C1228       C  0.76065128  0.85894730  0.17792719     0.20700
F1229       F  0.72456465  0.81278476  0.18292233    -0.12200
F1230       F  0.80541081  0.85254235  0.21468811    -0.14500
F1231       F  0.79163151  0.96087018  0.13193189    -0.14700
F1232       F  0.87484892  0.99809167  0.16144329    -0.12200
C1233       C  0.61964348  0.93543465  0.19540155     0.25800
C1234       C  0.57257335  0.92521494  0.18980410    -0.22300
C1235       C  0.54552352  0.89225063  0.16879235     0.20800
C1236       C  0.56535658  0.87019223  0.15339323     0.25800
C1237       C  0.61341975  0.88248244  0.15786834    -0.22200
C1238       C  0.64010026  0.91457960  0.17936865     0.20700
F1239       F  0.68652157  0.92701163  0.18427037    -0.12200
F1240       F  0.64642925  0.96694570  0.21574956    -0.14500
F1241       F  0.53732736  0.83627280  0.13437473    -0.14500
F1242       F  0.49931893  0.88034562  0.16372863    -0.12200
C1243       C  0.85243022  0.58588124  0.42428602     0.25800
C1244       C  0.88118499  0.62491642  0.40680347    -0.22300
C1245       C  0.93145470  0.64452794  0.40603025     0.20800
C1246       C  0.95261515  0.62460055  0.42214356     0.25800
C1247       C  0.92363470  0.58423366  0.43908165    -0.22200
C1248       C  0.87327083  0.56546183  0.44012477     0.20700
F1249       F  0.84405136  0.52765879  0.45679080    -0.12200
F1250       F  0.80382481  0.56676030  0.42554407    -0.14500
F1251       F  0.00128853  0.64427474  0.42070650    -0.14500
F1252       F  0.96010760  0.68337227  0.38989326    -0.12200
C1253       C  0.91514825  0.77472649  0.42349158     0.25800
C1254       C  0.87686159  0.76328256  0.40547762    -0.22300
C1255       C  0.85802110  0.79362766  0.40411272     0.20800
C1256       C  0.87764921  0.83530129  0.42046182     0.25800
C1257       C  0.91689147  0.84754067  0.43824492    -0.22200
C1258       C  0.93530308  0.81658773  0.43955764     0.20700
F1259       F  0.97231776  0.82620889  0.45678062    -0.12200
F1260       F  0.93366068  0.74566591  0.42515877    -0.14500
F1261       F  0.85857569  0.86386118  0.41858569    -0.14500
F1262       F  0.81997357  0.78235728  0.38735195    -0.12200
C1263       C  0.70297783  0.56817619  0.40483375     0.25800
C1264       C  0.73693793  0.61797237  0.40656290    -0.22300
C1265       C  0.72916143  0.64636130  0.42521022     0.20800
C1266       C  0.68737543  0.62569141  0.44141550     0.25800
C1267       C  0.65278658  0.57590602  0.43957111    -0.22200
C1268       C  0.66128618  0.54718052  0.42133620     0.20700
F1269       F  0.62878991  0.49907791  0.41898565    -0.12200
F1270       F  0.71053070  0.53983781  0.38742960    -0.14500
F1271       F  0.68116729  0.65443424  0.45923680    -0.14500
F1272       F  0.76152036  0.69452932  0.42721992    -0.12200
C1273       C  0.91945547  0.65012472  0.32766482     0.25800
C1274       C  0.87913450  0.62145448  0.34440541    -0.22300
C1275       C  0.85887325  0.57130974  0.34505299     0.20800
C1276       C  0.87889523  0.54993086  0.32914083     0.25800
C1277       C  0.91991626  0.57858969  0.31249374    -0.22200
C1278       C  0.94000997  0.62905245  0.31200448     0.20700
F1279       F  0.97901161  0.65809216  0.29595338    -0.12200
F1280       F  0.93939485  0.69872226  0.32683424    -0.14500
F1281       F  0.85847568  0.50130540  0.33036082    -0.14500
F1282       F  0.81919906  0.54300325  0.36081532    -0.12200
C1283       C  0.94846417  0.83805222  0.32843345     0.25800
C1284       C  0.91962645  0.84597439  0.31008892    -0.22300
C1285       C  0.87001894  0.81053349  0.30772846     0.20800
C1286       C  0.84962954  0.76862823  0.32376604     0.25800
C1287       C  0.87821538  0.76174767  0.34268927    -0.22200
C1288       C  0.92785398  0.79635641  0.34463214     0.20700
F1289       F  0.95653643  0.78941155  0.36197785    -0.12200
F1290       F  0.99644774  0.87113001  0.33116952    -0.14500
F1291       F  0.80170098  0.73519556  0.32121223    -0.14500
F1292       F  0.84136880  0.81597624  0.28953485    -0.12200
C1293       C  0.70481808  0.63708517  0.34653604     0.25800
C1294       C  0.73662397  0.62003071  0.34370218    -0.22300
C1295       C  0.72703002  0.58463538  0.32383359     0.20800
C1296       C  0.68532228  0.56530463  0.30760572     0.25800
C1297       C  0.65285202  0.58166233  0.31072276    -0.22200
C1298       C  0.66328319  0.61810646  0.33018034     0.20700
F1299       F  0.63282528  0.63473614  0.33377828    -0.12200
F1300       F  0.71455574  0.67292808  0.36473602    -0.14500
F1301       F  0.67725239  0.53129418  0.28842401    -0.14500
F1302       F  0.75775213  0.56828776  0.32040978    -0.12200
C1303       C  0.83168008  0.66707040  0.84799311     0.47700
H1304       H  0.83171237  0.66644273  0.82508809    -0.01300
C1305       C  0.83192225  0.66858052  0.90175873     0.47800
H1306       H  0.83204366  0.66923899  0.92466471    -0.01300
C1307       C  0.85618525  0.71810967  0.86025634    -0.15000
C1308       C  0.78082369  0.64036704  0.86083229    -0.14800
C1309       C  0.85799544  0.64403252  0.86112433    -0.15100
C1310       C  0.85617492  0.71888485  0.88857358    -0.15100
C1311       C  0.78098550  0.64079292  0.88915943    -0.14700
C1312       C  0.85831931  0.64499982  0.88939278    -0.15000
C1313       C  0.66123060  0.83739727  0.65197759     0.47700
H1314       H  0.66122691  0.83685603  0.67491187    -0.01300
C1315       C  0.66069688  0.83829546  0.59831736     0.47800
H1316       H  0.66044764  0.83850437  0.57537426    -0.01300
C1317       C  0.71219308  0.86346683  0.63911818    -0.15000
C1318       C  0.63515428  0.78679110  0.63897546    -0.14800
C1319       C  0.63617420  0.86252407  0.63991778    -0.15100
C1320       C  0.71178407  0.86345837  0.61071753    -0.15100
C1321       C  0.63475063  0.78730620  0.61063633    -0.14700
C1322       C  0.63616417  0.86336434  0.61152162    -0.15000
O1323       O  0.98156234  0.90989249  0.96438592    -0.76200
C1324       C  0.60805091  0.55481225  0.95638407     0.84800
O1325       O  0.53331584  0.97200127  0.55757064    -0.77400
O1326       O  0.55950799  0.61863863  0.51840782    -0.78800
O1327       O  0.91842379  0.51747324  0.96267443    -0.78600
O1328       O  0.91373100  0.91121357  0.96109162    -0.77300
Zn1329     Zn  0.52787425  0.96744812  0.98743333     1.55700
O1330       O  0.98985961  0.58622034  0.96231184    -0.78700
Cd1331     Cd  0.92957057  0.97033477  0.98543859     1.59700
Cd1332     Cd  0.99609008  0.50283841  0.54134865     1.59600
O1333       O  0.88050517  0.94648770  0.51750287    -0.78700
O1334       O  0.99713557  0.50221708  0.99999876    -1.89200
Cd1335     Cd  0.53317992  0.57009688  0.98607901     1.59900
O1336       O  0.92522949  0.96397600  0.55566231    -0.78600
O1337       O  0.59154345  0.58161680  0.96291044    -0.77300
C1338       C  0.55010826  0.94843903  0.54589211     0.85300
C1339       C  0.93850531  0.89196666  0.95543489     0.84900
O1340       O  0.58727037  0.51088121  0.96414167    -0.76200
C1341       C  0.94527554  0.56150183  0.95552158     0.85700
O1342       O  0.54879529  0.94301903  0.51977567    -0.76300
C1343       C  0.88435452  0.94576936  0.54360988     0.85900
C1344       C  0.55263559  0.61424250  0.54438863     0.86200
O1345       O  0.52798213  0.57314623  0.55606121    -0.78700
O1346       O  0.58818375  0.51643671  0.78652604    -0.76200
C1347       C  0.94103312  0.89085783  0.79355919     0.84800
O1348       O  0.52924276  0.96567036  0.69385424    -0.77400
O1349       O  0.88075624  0.94287995  0.73169140    -0.78800
O1350       O  0.98541036  0.58237013  0.78788042    -0.78600
O1351       O  0.59114905  0.58652179  0.78695750    -0.77300
Zn1352     Zn  0.53037417  0.97091078  0.76369860     1.55700
O1353       O  0.91542771  0.51197836  0.78845416    -0.78700
Cd1354     Cd  0.53078195  0.57051788  0.76377224     1.59700
Cd1355     Cd  0.99728636  0.50258397  0.70885799     1.59600
O1356       O  0.55210679  0.61849058  0.73127901    -0.78700
O1357       O  0.99720976  0.50242698  0.75018322    -1.89200
Cd1358     Cd  0.92897654  0.96738368  0.76411810     1.59900
O1359       O  0.53472946  0.57268267  0.69356890    -0.78600
O1360       O  0.91442102  0.90735445  0.78664777    -0.77300
C1361       C  0.55127089  0.94795319  0.70618193     0.85300
C1362       C  0.60832945  0.56048540  0.79385754     0.84900
O1363       O  0.98551657  0.91202923  0.78655199    -0.76200
C1364       C  0.94138684  0.55629743  0.79545502     0.85700
O1365       O  0.55510413  0.94888762  0.73232986    -0.76300
C1366       C  0.55213424  0.61379838  0.70517704     0.85900
C1367       C  0.88561012  0.94715937  0.70558597     0.86200
O1368       O  0.92703467  0.96931206  0.69390058    -0.78700
C1369       C  0.54501185  0.66391874  0.58117016     0.25800
C1370       C  0.57354369  0.65836692  0.56134262    -0.22300
C1371       C  0.62174181  0.69594576  0.55721611     0.20800
C1372       C  0.64138143  0.73809138  0.57306411     0.25800
C1373       C  0.61295165  0.74349456  0.59304176    -0.22200
C1374       C  0.56436227  0.70647070  0.59662443     0.20700
F1375       F  0.53546778  0.71184891  0.61479780    -0.12200
F1376       F  0.49793585  0.62873416  0.58493307    -0.14500
F1377       F  0.68868216  0.77287711  0.56957918    -0.14500
F1378       F  0.65025590  0.69116785  0.53844412    -0.12200
C1379       C  0.76298258  0.91596906  0.57191908     0.25800
C1380       C  0.75545374  0.88306036  0.59294750    -0.22300
C1381       C  0.78966566  0.86922265  0.59686564     0.20800
C1382       C  0.83201337  0.89006040  0.58100719     0.25800
C1383       C  0.83987794  0.92363838  0.56035164    -0.22200
C1384       C  0.80472626  0.93585462  0.55561272     0.20700
F1385       F  0.81169229  0.96842265  0.53582381    -0.12200
F1386       F  0.73070537  0.93014636  0.56778941    -0.14500
F1387       F  0.86471514  0.87646687  0.58526761    -0.14500
F1388       F  0.78171894  0.83498976  0.61572519    -0.12200
C1389       C  0.56012384  0.87918544  0.55801068     0.25800
C1390       C  0.57183476  0.92682537  0.56295435    -0.22300
C1391       C  0.60519101  0.95383930  0.58388118     0.20800
C1392       C  0.62718468  0.93387091  0.59920215     0.25800
C1393       C  0.61483977  0.88589485  0.59454966    -0.22200
C1394       C  0.58116990  0.85881435  0.57378649     0.20700
F1395       F  0.56741091  0.81201283  0.56937483    -0.12200
F1396       F  0.52702739  0.85179297  0.53846298    -0.14500
F1397       F  0.66119120  0.96172441  0.61823212    -0.14500
F1398       F  0.61766705  0.00012763  0.58888337    -0.12200
C1399       C  0.60681748  0.66568909  0.66724231     0.25800
C1400       C  0.57296927  0.65756191  0.68797685    -0.22300
C1401       C  0.56001706  0.69219347  0.69266667     0.20800
C1402       C  0.58031279  0.73414317  0.67667824     0.25800
C1403       C  0.61430741  0.74239828  0.65600854    -0.22200
C1404       C  0.62803772  0.70821565  0.65172525     0.20700
F1405       F  0.66285743  0.71653526  0.63300384    -0.12200
F1406       F  0.62057825  0.63320559  0.66269884    -0.14500
F1407       F  0.56583076  0.76615041  0.68089729    -0.14500
F1408       F  0.02662802  0.68469535  0.71221875    -0.12200
C1409       C  0.80251603  0.87916165  0.69406375     0.25800
C1410       C  0.84165464  0.92586128  0.68845330    -0.22300
C1411       C  0.83792191  0.95248425  0.66686490     0.20800
C1412       C  0.79537058  0.93297604  0.65137049     0.25800
C1413       C  0.75669261  0.88558196  0.65635756    -0.22200
C1414       C  0.76065130  0.85894732  0.67792717     0.20700
F1415       F  0.72456466  0.81278479  0.68292232    -0.12200
F1416       F  0.80541072  0.85254246  0.71468818    -0.14500
F1417       F  0.79163155  0.96087019  0.63193184    -0.14700
F1418       F  0.87484899  0.99809163  0.66144322    -0.12200
C1419       C  0.61964356  0.93543473  0.69540156     0.25800
C1420       C  0.57257339  0.92521492  0.68980415    -0.22300
C1421       C  0.54552352  0.89225052  0.66879244     0.20800
C1422       C  0.56535659  0.87019216  0.65339331     0.25800
C1423       C  0.61341981  0.88248247  0.65786838    -0.22200
C1424       C  0.64010035  0.91457971  0.67936865     0.20700
F1425       F  0.68652170  0.92701182  0.68427032    -0.12200
F1426       F  0.64642938  0.96694587  0.71574952    -0.14500
F1427       F  0.53732737  0.83627265  0.63437485    -0.14500
F1428       F  0.49931887  0.88034540  0.66372877    -0.12200
C1429       C  0.85243034  0.58588144  0.92428604     0.25800
C1430       C  0.88118508  0.62491654  0.90680343    -0.22300
C1431       C  0.93145478  0.64452797  0.90603014     0.20800
C1432       C  0.95261525  0.62460063  0.92214348     0.25800
C1433       C  0.92363481  0.58423379  0.93908160    -0.22200
C1434       C  0.87327096  0.56546203  0.94012477     0.20700
F1435       F  0.84405152  0.52765906  0.95679086    -0.12200
F1436       F  0.80382494  0.56676060  0.92554417    -0.14500
F1437       F  0.00128863  0.64427482  0.92070643    -0.14500
F1438       F  0.96010766  0.68337218  0.88989307    -0.12200
C1439       C  0.91514815  0.77472653  0.92349153     0.25800
C1440       C  0.87686157  0.76328268  0.90547752    -0.22300
C1441       C  0.85802125  0.79362792  0.90411253     0.20800
C1442       C  0.87764943  0.83530159  0.92046160     0.25800
C1443       C  0.91689154  0.84754082  0.93824479    -0.22200
C1444       C  0.93530301  0.81658777  0.93955758     0.20700
F1445       F  0.97231756  0.82620881  0.95678064    -0.12200
F1446       F  0.93366045  0.74566585  0.92515879    -0.14500
F1447       F  0.85857615  0.86386167  0.91858536    -0.14500
F1448       F  0.81997381  0.78235764  0.88735172    -0.12200
C1449       C  0.70297790  0.56817612  0.90483381     0.25800
C1450       C  0.73693796  0.61797232  0.90656294    -0.22300
C1451       C  0.72916141  0.64636124  0.92521022     0.20800
C1452       C  0.68737540  0.62569133  0.94141551     0.25800
C1453       C  0.65278659  0.57590593  0.93957112    -0.22200
C1454       C  0.66128623  0.54718043  0.92133623     0.20700
F1455       F  0.62878996  0.49907782  0.91898566    -0.12200
F1456       F  0.71053082  0.53983776  0.88742968    -0.14500
F1457       F  0.68116722  0.65443414  0.95923679    -0.14500
F1458       F  0.76152025  0.69452930  0.92721987    -0.12200
C1459       C  0.91945541  0.65012480  0.82766470     0.25800
C1460       C  0.87913452  0.62145457  0.84440535    -0.22300
C1461       C  0.85887334  0.57130985  0.84505298     0.20800
C1462       C  0.87889530  0.54993096  0.82914082     0.25800
C1463       C  0.91991628  0.57858978  0.81249369    -0.22200
C1464       C  0.94000993  0.62905252  0.81200438     0.20700
F1465       F  0.97901151  0.65809221  0.79595322    -0.12200
F1466       F  0.93939469  0.69872232  0.82683403    -0.14500
F1467       F  0.85847578  0.50130551  0.83036082    -0.14500
F1468       F  0.81919919  0.54300336  0.86081534    -0.12200
C1469       C  0.94846410  0.83805194  0.82843321     0.25800
C1470       C  0.91962631  0.84597432  0.81008883    -0.22300
C1471       C  0.87001873  0.81053360  0.80772850     0.20800
C1472       C  0.84962931  0.76862831  0.82376607     0.25800
C1473       C  0.87821521  0.76174760  0.84268918    -0.22200
C1474       C  0.92785387  0.79635616  0.84463192     0.20700
F1475       F  0.95653633  0.78941115  0.86197753    -0.12200
F1476       F  0.99644777  0.87112949  0.83116909    -0.14500
F1477       F  0.80170069  0.73519578  0.82121237    -0.14500
F1478       F  0.84136851  0.81597653  0.78953504    -0.12200
C1479       C  0.70481812  0.63708517  0.84653603     0.25800
C1480       C  0.73662387  0.62003054  0.84370225    -0.22300
C1481       C  0.72702974  0.58463497  0.82383379     0.20800
C1482       C  0.68532198  0.56530422  0.80760594     0.25800
C1483       C  0.65285186  0.58166210  0.81072289    -0.22200
C1484       C  0.66328319  0.61810643  0.83018035     0.20700
F1485       F  0.63282542  0.63473630  0.83377821    -0.12200
F1486       F  0.71455596  0.67292829  0.86473589    -0.14500
F1487       F  0.67725196  0.53129359  0.78842432    -0.14500
F1488       F  0.75775171  0.56828717  0.82041007    -0.12200
loop_ 
_geom_bond_atom_site_label_1 
_geom_bond_atom_site_label_2 
_geom_bond_distance 
_geom_bond_site_symmetry_2 
_ccdc_geom_bond_type 
C1            H2   1.110       .  S
C1            C7   1.536       .  S
C1            C6   1.535       .  S
C1            C5   1.534       .  S
C3            H4   1.110       .  S
C3            C9   1.535       .  S
C3            C8   1.535       .  S
C3           C10   1.532       .  S
C5            C8   1.373       .  D
C5          C171   1.480       .  S
C6            C9   1.373       .  D
C6          C178   1.480       .  S
C7           C10   1.370       .  D
C7          C158   1.475       .  S
C8          C138   1.478       .  S
C9          C148   1.479       .  S
C10         C128   1.481       .  S
C11          H12   1.112       .  S
C11          C17   1.535       .  S
C11          C16   1.536       .  S
C11          C15   1.538       .  S
C13          H14   1.112       .  S
C13          C19   1.534       .  S
C13          C18   1.535       .  S
C13          C20   1.538       .  S
C15          C18   1.377       .  D
C15         C111   1.488       .  S
C16          C19   1.374       .  D
C16         C101   1.484       .  S
C17          C20   1.377       .  D
C17         C121   1.485       .  S
C18          C78   1.483       .  S
C19          C71   1.482       .  S
C20          C91   1.490       .  S
O21          C37   1.275       .  A
O21        Zn771   2.015       .  S
C22          O38   1.276       .  A
C22          O35   1.274       .  A
C22         C151   1.480       .  S
O23          C36   1.276       .  A
O23       Cd1146   2.082   1_455  S
O24          C42   1.273       .  A
O24        Cd219   2.063   1_554  S
O25          C39   1.274       .  A
O25        Cd401   2.068   1_545  S
O26          C37   1.275       .  A
O26         Cd29   2.073       .  S
Zn27        O765   2.015   1_455  S
Zn27        O410   2.031       .  S
Zn27        O226   2.029       .  S
Zn27       O1148   1.947   1_455  S
O28          C39   1.276       .  A
O28        Cd777   2.084       .  S
Cd29        O397   2.068       .  S
Cd29        O217   2.060       .  S
Cd29        O404   1.999       .  S
Cd30       O1139   2.082   1_545  S
Cd30        O406   2.076   1_545  S
Cd30        O787   2.078       .  S
Cd30        O218   2.005   1_554  S
O31          C41   1.273       .  A
O31        Cd215   2.060   1_554  S
O32       Zn1143   1.947   1_545  S
O32        Cd401   1.999   1_545  S
O32        Cd216   2.005       .  S
O32        Cd777   1.998       .  S
Cd33         O35   2.054       .  S
Cd33        O210   2.063       .  S
Cd33        O772   2.084   1_455  S
Cd33        O776   1.998   1_455  S
O34          C41   1.276       .  A
O34        Cd402   2.076       .  S
C36          O40   1.275       .  A
C36          C88   1.480       .  S
C37         C141   1.485       .  S
O38        Zn399   2.031   1_545  S
C39         C131   1.488       .  S
O40        Zn213   2.029   1_554  S
C41          C81   1.471       .  S
C42          O43   1.276       .  A
C42          C68   1.473       .  S
O43        Cd774   2.078   1_455  S
O44          C60   1.273       .  A
O44        Zn422   2.007   1_545  S
C45          O61   1.275       .  A
C45          O58   1.274       .  A
C45         C168   1.482       .  S
O46          C59   1.276       .  A
O46       Cd1169   2.076   1_455  S
O47          C65   1.274       .  A
O47         Cd56   2.062       .  S
O48          C62   1.273       .  A
O48        Cd796   2.059       .  S
O49          C60   1.275       .  A
O49         Cd52   2.074       .  S
Zn50         O63   2.010       .  S
Zn50        O416   2.007       .  S
Zn50        O805   2.024   1_455  S
Zn50       O1171   1.943   1_455  S
O51          C62   1.276       .  A
O51        Cd428   2.079   1_545  S
Cd52         O54   2.066       .  S
Cd52        O792   2.059   1_455  S
Cd52        O799   1.997   1_455  S
Cd53       O1162   2.076   1_545  S
Cd53        O801   2.079       .  S
Cd53        O438   2.075   1_545  S
Cd53         O55   2.003       .  S
O54          C64   1.274       .  A
O55       Zn1166   1.943   1_545  S
O55        Cd796   1.997       .  S
O55        Cd428   2.000   1_545  S
Cd56         O58   2.065       .  S
Cd56        O423   2.079       .  S
Cd56        O427   2.000       .  S
O57          C64   1.276       .  A
O57        Cd797   2.079   1_455  S
C59          O63   1.273       .  A
C59         C118   1.473       .  S
C60         C181   1.479       .  S
O61        Zn794   2.024       .  S
C62         C161   1.484       .  S
C64          C98   1.474       .  S
C65          O66   1.275       .  A
C65         C108   1.473       .  S
O66        Cd425   2.075       .  S
C67          C68   1.405       .  A
C67          C72   1.398       .  A
C67          F74   1.358   1_455  S
C68          C69   1.406       .  A
C69          C70   1.398       .  A
C69          F76   1.358       .  S
C70          C71   1.405       .  A
C70          F75   1.358       .  S
C71          C72   1.406       .  A
C72          F73   1.357       .  S
C77          C78   1.405       .  A
C77          C82   1.397       .  A
C77          F84   1.358       .  S
C78          C79   1.408       .  A
C79          C80   1.398       .  A
C79          F86   1.358       .  S
C80          C81   1.404       .  A
C80          F85   1.358       .  S
C81          C82   1.405       .  A
C82          F83   1.358       .  S
C87          C88   1.406       .  A
C87          C92   1.400       .  A
C87          F94   1.358       .  S
C88          C89   1.406       .  A
C89          C90   1.401       .  A
C89          F96   1.358       .  S
C90          C91   1.408       .  A
C90          F95   1.358       .  S
C91          C92   1.405       .  A
C92          F93   1.358       .  S
C97          C98   1.404       .  A
C97         C102   1.399       .  A
C97         F104   1.358       .  S
C98          C99   1.406       .  A
C99         C100   1.399       .  A
C99         F850   1.358       .  S
C100        C101   1.404       .  A
C100        F105   1.358       .  S
C101        C102   1.407       .  A
C102        F103   1.357       .  S
F106        C843   1.358       .  S
C107        C108   1.405       .  A
C107        C112   1.398       .  A
C107        F114   1.358       .  S
C108        C109   1.404       .  A
C109        C110   1.398       .  A
C109        F116   1.358       .  S
C110        C111   1.409       .  A
C110        F115   1.357       .  S
C111        C112   1.407       .  A
C112        F113   1.358       .  S
C117        C118   1.406       .  A
C117        C122   1.399       .  A
C117        F124   1.358       .  S
C118        C119   1.404       .  A
C119        C120   1.397       .  A
C119        F126   1.358   1_455  S
C120        C121   1.407       .  A
C120        F125   1.357       .  S
C121        C122   1.406       .  A
C122        F123   1.358       .  S
C127        C128   1.401       .  A
C127        C132   1.398       .  A
C127        F134   1.358       .  S
C128        C129   1.404       .  A
C129        C130   1.402       .  A
C129        F136   1.358       .  S
C130        C131   1.411       .  A
C130        F135   1.358       .  S
C131        C132   1.412       .  A
C132        F133   1.358       .  S
C137        C138   1.400       .  A
C137        C142   1.396       .  A
C137        F144   1.357       .  S
C138        C139   1.404       .  A
C139        C140   1.400       .  A
C139        F146   1.358       .  S
C140        C141   1.411       .  A
C140        F145   1.358       .  S
C141        C142   1.411       .  A
C142        F143   1.358       .  S
C147        C148   1.405       .  A
C147        C152   1.400       .  A
C147        F154   1.358       .  S
C148        C149   1.401       .  A
C149        C150   1.395       .  A
C149        F156   1.357       .  S
C150        C151   1.409       .  A
C150        F155   1.358       .  S
C151        C152   1.409       .  A
C152        F153   1.358   1_545  S
C157        C158   1.399       .  A
C157        C162   1.397       .  A
C157        F164   1.358       .  S
C158        C159   1.402       .  A
C159        C160   1.399       .  A
C159        F166   1.358       .  S
C160        C161   1.410       .  A
C160        F165   1.358       .  S
C161        C162   1.412       .  A
C162        F163   1.358       .  S
C167        C168   1.408       .  A
C167        C172   1.398       .  A
C167        F174   1.358       .  S
C168        C169   1.410       .  A
C169        C170   1.399       .  A
C169        F176   1.358       .  S
C170        C171   1.403       .  A
C170        F175   1.358       .  S
C171        C172   1.403       .  A
C172        F173   1.357       .  S
C177        C178   1.405       .  A
C177        C182   1.398       .  A
C177        F184   1.358       .  S
C178        C179   1.402       .  A
C179        C180   1.398       .  A
C179        F186   1.358       .  S
C180        C181   1.409       .  A
C180        F185   1.358       .  S
C181        C182   1.407       .  A
C182        F183   1.358       .  S
C187        H188   1.110       .  S
C187        C193   1.536       .  S
C187        C192   1.535       .  S
C187        C191   1.534       .  S
C189        H190   1.110       .  S
C189        C195   1.535       .  S
C189        C194   1.535       .  S
C189        C196   1.532       .  S
C191        C194   1.373       .  D
C191        C357   1.480       .  S
C192        C195   1.373       .  D
C192        C364   1.480       .  S
C193        C196   1.370       .  D
C193        C344   1.475       .  S
C194        C324   1.478       .  S
C195        C334   1.479       .  S
C196        C314   1.481       .  S
C197        H198   1.112       .  S
C197        C203   1.535       .  S
C197        C202   1.536       .  S
C197        C201   1.538       .  S
C199        H200   1.112       .  S
C199        C205   1.534       .  S
C199        C204   1.535       .  S
C199        C206   1.538       .  S
C201        C204   1.377       .  D
C201        C297   1.488       .  S
C202        C205   1.374       .  D
C202        C287   1.484       .  S
C203        C206   1.377       .  D
C203        C307   1.485       .  S
C204        C264   1.483       .  S
C205        C257   1.482       .  S
C206        C277   1.490       .  S
O207        C223   1.275       .  A
O207       Zn957   2.015       .  S
C208        O224   1.276       .  A
C208        O221   1.274       .  A
C208        C337   1.480       .  S
O209        C222   1.276       .  A
O209      Cd1332   2.082   1_455  S
O210        C228   1.273       .  A
O211        C225   1.274       .  A
O211       Cd587   2.068   1_545  S
O212        C223   1.275       .  A
O212       Cd215   2.073       .  S
Zn213       O951   2.015   1_455  S
Zn213       O596   2.031       .  S
Zn213      O1334   1.947   1_455  S
O214        C225   1.276       .  A
O214       Cd963   2.084       .  S
Cd215       O583   2.068       .  S
Cd215       O590   1.999       .  S
Cd216      O1325   2.082   1_545  S
Cd216       O592   2.076   1_545  S
Cd216       O973   2.078       .  S
O217        C227   1.273       .  A
O218      Zn1329   1.947   1_545  S
O218       Cd587   1.999   1_545  S
O218       Cd963   1.998       .  S
Cd219       O958   2.084   1_455  S
Cd219       O221   2.054       .  S
Cd219       O962   1.998   1_455  S
O220        C227   1.276       .  A
O220       Cd588   2.076       .  S
C222        O226   1.275       .  A
C222        C274   1.480       .  S
C223        C327   1.485       .  S
O224       Zn585   2.031   1_545  S
C225        C317   1.488       .  S
C227        C267   1.471       .  S
C228        O229   1.276       .  A
C228        C254   1.473       .  S
O229       Cd960   2.078   1_455  S
O230        C246   1.273       .  A
O230       Zn608   2.007   1_545  S
C231        O247   1.275       .  A
C231        O244   1.274       .  A
C231        C354   1.482       .  S
O232        C245   1.276       .  A
O232      Cd1355   2.076   1_455  S
O233        C251   1.274       .  A
O233       Cd242   2.062       .  S
O234        C248   1.273       .  A
O234       Cd982   2.059       .  S
O235        C246   1.275       .  A
O235       Cd238   2.074       .  S
Zn236       O602   2.007       .  S
Zn236       O991   2.024   1_455  S
Zn236       O249   2.010       .  S
Zn236      O1357   1.943   1_455  S
O237        C248   1.276       .  A
O237       Cd614   2.079   1_545  S
Cd238       O978   2.059   1_455  S
Cd238       O240   2.066       .  S
Cd238       O985   1.997   1_455  S
Cd239      O1348   2.076   1_545  S
Cd239       O987   2.079       .  S
Cd239       O624   2.075   1_545  S
Cd239       O241   2.003       .  S
O240        C250   1.274       .  A
O241      Zn1352   1.943   1_545  S
O241       Cd982   1.997       .  S
O241       Cd614   2.000   1_545  S
Cd242       O609   2.079       .  S
Cd242       O244   2.065       .  S
Cd242       O613   2.000       .  S
O243        C250   1.276       .  A
O243       Cd983   2.079   1_455  S
C245        O249   1.273       .  A
C245        C304   1.473       .  S
C246        C367   1.479       .  S
O247       Zn980   2.024       .  S
C248        C347   1.484       .  S
C250        C284   1.474       .  S
C251        O252   1.275       .  A
C251        C294   1.473       .  S
O252       Cd611   2.075       .  S
C253        C254   1.405       .  A
C253        C258   1.398       .  A
C253        F260   1.358   1_455  S
C254        C255   1.406       .  A
C255        C256   1.398       .  A
C255        F262   1.358       .  S
C256        C257   1.405       .  A
C256        F261   1.358       .  S
C257        C258   1.406       .  A
C258        F259   1.357       .  S
C263        C264   1.405       .  A
C263        C268   1.397       .  A
C263        F270   1.358       .  S
C264        C265   1.408       .  A
C265        C266   1.398       .  A
C265        F272   1.358       .  S
C266        C267   1.404       .  A
C266        F271   1.358       .  S
C267        C268   1.405       .  A
C268        F269   1.358       .  S
C273        C274   1.406       .  A
C273        C278   1.400       .  A
C273        F280   1.358       .  S
C274        C275   1.406       .  A
C275        C276   1.401       .  A
C275        F282   1.358       .  S
C276        C277   1.408       .  A
C276        F281   1.358       .  S
C277        C278   1.405       .  A
C278        F279   1.358       .  S
C283        C284   1.404       .  A
C283        C288   1.399       .  A
C283        F290   1.358       .  S
C284        C285   1.406       .  A
C285        C286   1.399       .  A
C285       F1036   1.358       .  S
C286        C287   1.404       .  A
C286        F291   1.358       .  S
C287        C288   1.407       .  A
C288        F289   1.357       .  S
F292       C1029   1.358       .  S
C293        C294   1.405       .  A
C293        C298   1.398       .  A
C293        F300   1.358       .  S
C294        C295   1.404       .  A
C295        C296   1.398       .  A
C295        F302   1.358       .  S
C296        C297   1.409       .  A
C296        F301   1.357       .  S
C297        C298   1.407       .  A
C298        F299   1.358       .  S
C303        C304   1.406       .  A
C303        C308   1.399       .  A
C303        F310   1.358       .  S
C304        C305   1.404       .  A
C305        C306   1.397       .  A
C305        F312   1.358   1_455  S
C306        C307   1.407       .  A
C306        F311   1.357       .  S
C307        C308   1.406       .  A
C308        F309   1.358       .  S
C313        C314   1.401       .  A
C313        C318   1.398       .  A
C313        F320   1.358       .  S
C314        C315   1.404       .  A
C315        C316   1.402       .  A
C315        F322   1.358       .  S
C316        C317   1.411       .  A
C316        F321   1.358       .  S
C317        C318   1.412       .  A
C318        F319   1.358       .  S
C323        C324   1.400       .  A
C323        C328   1.396       .  A
C323        F330   1.357       .  S
C324        C325   1.404       .  A
C325        C326   1.400       .  A
C325        F332   1.358       .  S
C326        C327   1.411       .  A
C326        F331   1.358       .  S
C327        C328   1.411       .  A
C328        F329   1.358       .  S
C333        C334   1.405       .  A
C333        C338   1.400       .  A
C333        F340   1.358       .  S
C334        C335   1.401       .  A
C335        C336   1.395       .  A
C335        F342   1.357       .  S
C336        C337   1.409       .  A
C336        F341   1.358       .  S
C337        C338   1.409       .  A
C338        F339   1.358   1_545  S
C343        C344   1.399       .  A
C343        C348   1.397       .  A
C343        F350   1.358       .  S
C344        C345   1.402       .  A
C345        C346   1.399       .  A
C345        F352   1.358       .  S
C346        C347   1.410       .  A
C346        F351   1.358       .  S
C347        C348   1.412       .  A
C348        F349   1.358       .  S
C353        C354   1.408       .  A
C353        C358   1.398       .  A
C353        F360   1.358       .  S
C354        C355   1.410       .  A
C355        C356   1.399       .  A
C355        F362   1.358       .  S
C356        C357   1.403       .  A
C356        F361   1.358       .  S
C357        C358   1.403       .  A
C358        F359   1.357       .  S
C363        C364   1.405       .  A
C363        C368   1.398       .  A
C363        F370   1.358       .  S
C364        C365   1.402       .  A
C365        C366   1.398       .  A
C365        F372   1.358       .  S
C366        C367   1.409       .  A
C366        F371   1.358       .  S
C367        C368   1.407       .  A
C368        F369   1.358       .  S
C373        H374   1.110       .  S
C373        C379   1.536       .  S
C373        C378   1.535       .  S
C373        C377   1.534       .  S
C375        H376   1.110       .  S
C375        C381   1.535       .  S
C375        C380   1.535       .  S
C375        C382   1.532       .  S
C377        C380   1.373       .  D
C377        C543   1.480       .  S
C378        C381   1.373       .  D
C378        C550   1.480       .  S
C379        C382   1.370       .  D
C379        C530   1.475       .  S
C380        C510   1.478       .  S
C381        C520   1.479       .  S
C382        C500   1.481       .  S
C383        H384   1.112       .  S
C383        C389   1.535       .  S
C383        C388   1.536       .  S
C383        C387   1.538       .  S
C385        H386   1.112       .  S
C385        C391   1.534       .  S
C385        C390   1.535       .  S
C385        C392   1.538       .  S
C387        C390   1.377       .  D
C387        C483   1.488       .  S
C388        C391   1.374       .  D
C388        C473   1.484       .  S
C389        C392   1.377       .  D
C389        C493   1.485       .  S
C390        C450   1.483       .  S
C391        C443   1.482       .  S
C392        C463   1.490       .  S
O393        C409   1.275       .  A
O393      Zn1143   2.015       .  S
C394        O410   1.276       .  A
C394        O407   1.274       .  A
C394        C523   1.480       .  S
O395        C408   1.276       .  A
O395       Cd774   2.082   1_465  S
O396        C414   1.273       .  A
O396       Cd591   2.063   1_554  S
O397        C411   1.274       .  A
O398        C409   1.275       .  A
O398       Cd401   2.073       .  S
Zn399      O1137   2.015   1_455  S
Zn399       O598   2.029       .  S
Zn399       O776   1.947   1_465  S
O400        C411   1.276       .  A
O400      Cd1149   2.084       .  S
Cd401       O589   2.060       .  S
Cd402       O767   2.082       .  S
Cd402      O1159   2.078       .  S
Cd402       O590   2.005   1_554  S
O403        C413   1.273       .  A
O403       Cd587   2.060   1_554  S
O404       Zn771   1.947       .  S
O404       Cd588   2.005       .  S
O404      Cd1149   1.998       .  S
Cd405       O582   2.063       .  S
Cd405      O1144   2.084   1_455  S
Cd405       O407   2.054       .  S
Cd405      O1148   1.998   1_455  S
O406        C413   1.276       .  A
C408        O412   1.275       .  A
C408        C460   1.480       .  S
C409        C513   1.485       .  S
C411        C503   1.488       .  S
O412       Zn585   2.029   1_554  S
C413        C453   1.471       .  S
C414        O415   1.276       .  A
C414        C440   1.473       .  S
O415      Cd1146   2.078   1_455  S
O416        C432   1.273       .  A
C417        O433   1.275       .  A
C417        O430   1.274       .  A
C417        C540   1.482       .  S
O418        C431   1.276       .  A
O418       Cd797   2.076   1_465  S
O419        C437   1.274       .  A
O419       Cd428   2.062       .  S
O420        C434   1.273       .  A
O420      Cd1168   2.059       .  S
O421        C432   1.275       .  A
O421       Cd424   2.074       .  S
Zn422      O1177   2.024   1_455  S
Zn422       O435   2.010       .  S
Zn422       O799   1.943   1_465  S
O423        C434   1.276       .  A
Cd424      O1164   2.059   1_455  S
Cd424       O426   2.066       .  S
Cd424      O1171   1.997   1_455  S
Cd425       O790   2.076       .  S
Cd425      O1173   2.079       .  S
Cd425       O427   2.003       .  S
O426        C436   1.274       .  A
O427       Zn794   1.943       .  S
O427      Cd1168   1.997       .  S
Cd428       O430   2.065       .  S
O429        C436   1.276       .  A
O429      Cd1169   2.079   1_455  S
C431        O435   1.273       .  A
C431        C490   1.473       .  S
C432        C553   1.479       .  S
O433      Zn1166   2.024       .  S
C434        C533   1.484       .  S
C436        C470   1.474       .  S
C437        O438   1.275       .  A
C437        C480   1.473       .  S
C439        C440   1.405       .  A
C439        C444   1.398       .  A
C439        F446   1.358   1_455  S
C440        C441   1.406       .  A
C441        C442   1.398       .  A
C441        F448   1.358       .  S
C442        C443   1.405       .  A
C442        F447   1.358       .  S
C443        C444   1.406       .  A
C444        F445   1.357       .  S
C449        C450   1.405       .  A
C449        C454   1.397       .  A
C449        F456   1.358       .  S
C450        C451   1.408       .  A
C451        C452   1.398       .  A
C451        F458   1.358       .  S
C452        C453   1.404       .  A
C452        F457   1.358       .  S
C453        C454   1.405       .  A
C454        F455   1.358       .  S
C459        C460   1.406       .  A
C459        C464   1.400       .  A
C459        F466   1.358       .  S
C460        C461   1.406       .  A
C461        C462   1.401       .  A
C461        F468   1.358   1_565  S
C462        C463   1.408       .  A
C462        F467   1.358       .  S
C463        C464   1.405       .  A
C464        F465   1.358       .  S
C469        C470   1.404       .  A
C469        C474   1.399       .  A
C469        F476   1.358       .  S
C470        C471   1.406       .  A
C471        C472   1.399       .  A
C471       F1222   1.358       .  S
C472        C473   1.404       .  A
C472        F477   1.358       .  S
C473        C474   1.407       .  A
C474        F475   1.357       .  S
F478       C1215   1.358       .  S
C479        C480   1.405       .  A
C479        C484   1.398       .  A
C479        F486   1.358       .  S
C480        C481   1.404       .  A
C481        C482   1.398       .  A
C481        F488   1.358       .  S
C482        C483   1.409       .  A
C482        F487   1.357       .  S
C483        C484   1.407       .  A
C484        F485   1.358       .  S
C489        C490   1.406       .  A
C489        C494   1.399       .  A
C489        F496   1.358       .  S
C490        C491   1.404       .  A
C491        C492   1.397       .  A
C491        F498   1.358   1_455  S
C492        C493   1.407       .  A
C492        F497   1.357       .  S
C493        C494   1.406       .  A
C494        F495   1.358       .  S
C499        C500   1.401       .  A
C499        C504   1.398       .  A
C499        F506   1.358       .  S
C500        C501   1.404       .  A
C501        C502   1.402       .  A
C501        F508   1.358       .  S
C502        C503   1.411       .  A
C502        F507   1.358       .  S
C503        C504   1.412       .  A
C504        F505   1.358       .  S
C509        C510   1.400       .  A
C509        C514   1.396       .  A
C509        F516   1.357       .  S
C510        C511   1.404       .  A
C511        C512   1.400       .  A
C511        F518   1.358       .  S
C512        C513   1.411       .  A
C512        F517   1.358       .  S
C513        C514   1.411       .  A
C514        F515   1.358       .  S
C519        C520   1.405       .  A
C519        C524   1.400       .  A
C519        F526   1.358       .  S
C520        C521   1.401       .  A
C521        C522   1.395       .  A
C521        F528   1.357       .  S
C522        C523   1.409       .  A
C522        F527   1.358       .  S
C523        C524   1.409       .  A
C524        F525   1.358       .  S
C529        C530   1.399       .  A
C529        C534   1.397       .  A
C529        F536   1.358       .  S
C530        C531   1.402       .  A
C531        C532   1.399       .  A
C531        F538   1.358       .  S
C532        C533   1.410       .  A
C532        F537   1.358       .  S
C533        C534   1.412       .  A
C534        F535   1.358       .  S
C539        C540   1.408       .  A
C539        C544   1.398       .  A
C539        F546   1.358       .  S
C540        C541   1.410       .  A
C541        C542   1.399       .  A
C541        F548   1.358       .  S
C542        C543   1.403       .  A
C542        F547   1.358       .  S
C543        C544   1.403       .  A
C544        F545   1.357       .  S
C549        C550   1.405       .  A
C549        C554   1.398       .  A
C549        F556   1.358       .  S
C550        C551   1.402       .  A
C551        C552   1.398       .  A
C551        F558   1.358       .  S
C552        C553   1.409       .  A
C552        F557   1.358       .  S
C553        C554   1.407       .  A
C554        F555   1.358       .  S
C559        H560   1.110       .  S
C559        C565   1.536       .  S
C559        C564   1.535       .  S
C559        C563   1.534       .  S
C561        H562   1.110       .  S
C561        C567   1.535       .  S
C561        C566   1.535       .  S
C561        C568   1.532       .  S
C563        C566   1.373       .  D
C563        C729   1.480       .  S
C564        C567   1.373       .  D
C564        C736   1.480       .  S
C565        C568   1.370       .  D
C565        C716   1.475       .  S
C566        C696   1.478       .  S
C567        C706   1.479       .  S
C568        C686   1.481       .  S
C569        H570   1.112       .  S
C569        C575   1.535       .  S
C569        C574   1.536       .  S
C569        C573   1.538       .  S
C571        H572   1.112       .  S
C571        C577   1.534       .  S
C571        C576   1.535       .  S
C571        C578   1.538       .  S
C573        C576   1.377       .  D
C573        C669   1.488       .  S
C574        C577   1.374       .  D
C574        C659   1.484       .  S
C575        C578   1.377       .  D
C575        C679   1.485       .  S
C576        C636   1.483       .  S
C577        C629   1.482       .  S
C578        C649   1.490       .  S
O579        C595   1.275       .  A
O579      Zn1329   2.015       .  S
C580        O596   1.276       .  A
C580        O593   1.274       .  A
C580        C709   1.480       .  S
O581        C594   1.276       .  A
O581       Cd960   2.082   1_465  S
O582        C600   1.273       .  A
O583        C597   1.274       .  A
O584        C595   1.275       .  A
O584       Cd587   2.073       .  S
Zn585      O1323   2.015   1_455  S
Zn585       O962   1.947   1_465  S
O586        C597   1.276       .  A
O586      Cd1335   2.084       .  S
Cd588       O953   2.082       .  S
Cd588      O1345   2.078       .  S
O589        C599   1.273       .  A
O590       Zn957   1.947       .  S
O590      Cd1335   1.998       .  S
Cd591      O1330   2.084   1_455  S
Cd591       O593   2.054       .  S
Cd591      O1334   1.998   1_455  S
O592        C599   1.276       .  A
C594        O598   1.275       .  A
C594        C646   1.480       .  S
C595        C699   1.485       .  S
C597        C689   1.488       .  S
C599        C639   1.471       .  S
C600        O601   1.276       .  A
C600        C626   1.473       .  S
O601      Cd1332   2.078   1_455  S
O602        C618   1.273       .  A
C603        O619   1.275       .  A
C603        O616   1.274       .  A
C603        C726   1.482       .  S
O604        C617   1.276       .  A
O604       Cd983   2.076   1_465  S
O605        C623   1.274       .  A
O605       Cd614   2.062       .  S
O606        C620   1.273       .  A
O606      Cd1354   2.059       .  S
O607        C618   1.275       .  A
O607       Cd610   2.074       .  S
Zn608      O1363   2.024   1_455  S
Zn608       O621   2.010       .  S
Zn608       O985   1.943   1_465  S
O609        C620   1.276       .  A
Cd610      O1350   2.059   1_455  S
Cd610       O612   2.066       .  S
Cd610      O1357   1.997   1_455  S
Cd611       O976   2.076       .  S
Cd611      O1359   2.079       .  S
Cd611       O613   2.003       .  S
O612        C622   1.274       .  A
O613       Zn980   1.943       .  S
O613      Cd1354   1.997       .  S
Cd614       O616   2.065       .  S
O615        C622   1.276       .  A
O615      Cd1355   2.079   1_455  S
C617        O621   1.273       .  A
C617        C676   1.473       .  S
C618        C739   1.479       .  S
O619      Zn1352   2.024       .  S
C620        C719   1.484       .  S
C622        C656   1.474       .  S
C623        O624   1.275       .  A
C623        C666   1.473       .  S
C625        C626   1.405       .  A
C625        C630   1.398       .  A
C625        F632   1.358   1_455  S
C626        C627   1.406       .  A
C627        C628   1.398       .  A
C627        F634   1.358       .  S
C628        C629   1.405       .  A
C628        F633   1.358       .  S
C629        C630   1.406       .  A
C630        F631   1.357       .  S
C635        C636   1.405       .  A
C635        C640   1.397       .  A
C635        F642   1.358       .  S
C636        C637   1.408       .  A
C637        C638   1.398       .  A
C637        F644   1.358       .  S
C638        C639   1.404       .  A
C638        F643   1.358       .  S
C639        C640   1.405       .  A
C640        F641   1.358       .  S
C645        C646   1.406       .  A
C645        C650   1.400       .  A
C645        F652   1.358       .  S
C646        C647   1.406       .  A
C647        C648   1.401       .  A
C647        F654   1.358   1_565  S
C648        C649   1.408       .  A
C648        F653   1.358       .  S
C649        C650   1.405       .  A
C650        F651   1.358       .  S
C655        C656   1.404       .  A
C655        C660   1.399       .  A
C655        F662   1.358       .  S
C656        C657   1.406       .  A
C657        C658   1.399       .  A
C657       F1408   1.358       .  S
C658        C659   1.404       .  A
C658        F663   1.358       .  S
C659        C660   1.407       .  A
C660        F661   1.357       .  S
F664       C1401   1.358       .  S
C665        C666   1.405       .  A
C665        C670   1.398       .  A
C665        F672   1.358       .  S
C666        C667   1.404       .  A
C667        C668   1.398       .  A
C667        F674   1.358       .  S
C668        C669   1.409       .  A
C668        F673   1.357       .  S
C669        C670   1.407       .  A
C670        F671   1.358       .  S
C675        C676   1.406       .  A
C675        C680   1.399       .  A
C675        F682   1.358       .  S
C676        C677   1.404       .  A
C677        C678   1.397       .  A
C677        F684   1.358   1_455  S
C678        C679   1.407       .  A
C678        F683   1.357       .  S
C679        C680   1.406       .  A
C680        F681   1.358       .  S
C685        C686   1.401       .  A
C685        C690   1.398       .  A
C685        F692   1.358       .  S
C686        C687   1.404       .  A
C687        C688   1.402       .  A
C687        F694   1.358       .  S
C688        C689   1.411       .  A
C688        F693   1.358       .  S
C689        C690   1.412       .  A
C690        F691   1.358       .  S
C695        C696   1.400       .  A
C695        C700   1.396       .  A
C695        F702   1.357       .  S
C696        C697   1.404       .  A
C697        C698   1.400       .  A
C697        F704   1.358       .  S
C698        C699   1.411       .  A
C698        F703   1.358       .  S
C699        C700   1.411       .  A
C700        F701   1.358       .  S
C705        C706   1.405       .  A
C705        C710   1.400       .  A
C705        F712   1.358       .  S
C706        C707   1.401       .  A
C707        C708   1.395       .  A
C707        F714   1.357       .  S
C708        C709   1.409       .  A
C708        F713   1.358       .  S
C709        C710   1.409       .  A
C710        F711   1.358       .  S
C715        C716   1.399       .  A
C715        C720   1.397       .  A
C715        F722   1.358       .  S
C716        C717   1.402       .  A
C717        C718   1.399       .  A
C717        F724   1.358       .  S
C718        C719   1.410       .  A
C718        F723   1.358       .  S
C719        C720   1.412       .  A
C720        F721   1.358       .  S
C725        C726   1.408       .  A
C725        C730   1.398       .  A
C725        F732   1.358       .  S
C726        C727   1.410       .  A
C727        C728   1.399       .  A
C727        F734   1.358       .  S
C728        C729   1.403       .  A
C728        F733   1.358       .  S
C729        C730   1.403       .  A
C730        F731   1.357       .  S
C735        C736   1.405       .  A
C735        C740   1.398       .  A
C735        F742   1.358       .  S
C736        C737   1.402       .  A
C737        C738   1.398       .  A
C737        F744   1.358       .  S
C738        C739   1.409       .  A
C738        F743   1.358       .  S
C739        C740   1.407       .  A
C740        F741   1.358       .  S
C745        H746   1.110       .  S
C745        C751   1.536       .  S
C745        C750   1.535       .  S
C745        C749   1.534       .  S
C747        H748   1.110       .  S
C747        C753   1.535       .  S
C747        C752   1.535       .  S
C747        C754   1.532       .  S
C749        C752   1.373       .  D
C749        C915   1.480       .  S
C750        C753   1.373       .  D
C750        C922   1.480       .  S
C751        C754   1.370       .  D
C751        C902   1.475       .  S
C752        C882   1.478       .  S
C753        C892   1.479       .  S
C754        C872   1.481       .  S
C755        H756   1.112       .  S
C755        C761   1.535       .  S
C755        C760   1.536       .  S
C755        C759   1.538       .  S
C757        H758   1.112       .  S
C757        C763   1.534       .  S
C757        C762   1.535       .  S
C757        C764   1.538       .  S
C759        C762   1.377       .  D
C759        C855   1.488       .  S
C760        C763   1.374       .  D
C760        C845   1.484       .  S
C761        C764   1.377       .  D
C761        C865   1.485       .  S
C762        C822   1.483       .  S
C763        C815   1.482       .  S
C764        C835   1.490       .  S
O765        C781   1.275       .  A
C766        O782   1.276       .  A
C766        O779   1.274       .  A
C766        C895   1.480       .  S
O767        C780   1.276       .  A
O768        C786   1.273       .  A
O768       Cd963   2.063   1_554  S
O769        C783   1.274       .  A
O769      Cd1145   2.068   1_545  S
O770        C781   1.275       .  A
O770       Cd773   2.073       .  S
Zn771      O1154   2.031       .  S
Zn771       O970   2.029       .  S
O772        C783   1.276       .  A
Cd773      O1141   2.068       .  S
Cd773       O961   2.060       .  S
Cd773      O1148   1.999       .  S
Cd774      O1150   2.076   1_545  S
Cd774       O962   2.005   1_554  S
O775        C785   1.273       .  A
O775       Cd959   2.060   1_554  S
O776      Cd1145   1.999   1_545  S
O776       Cd960   2.005       .  S
Cd777       O954   2.063       .  S
Cd777       O779   2.054       .  S
O778        C785   1.276       .  A
O778      Cd1146   2.076       .  S
C780        O784   1.275       .  A
C780        C832   1.480       .  S
C781        C885   1.485       .  S
O782      Zn1143   2.031   1_545  S
C783        C875   1.488       .  S
O784       Zn957   2.029   1_554  S
C785        C825   1.471       .  S
C786        O787   1.276       .  A
C786        C812   1.473       .  S
O788        C804   1.273       .  A
O788      Zn1166   2.007   1_545  S
C789        O805   1.275       .  A
C789        O802   1.274       .  A
C789        C912   1.482       .  S
O790        C803   1.276       .  A
O791        C809   1.274       .  A
O791       Cd800   2.062       .  S
O792        C806   1.273       .  A
O793        C804   1.275       .  A
O793       Cd796   2.074       .  S
Zn794      O1160   2.007       .  S
Zn794       O807   2.010       .  S
O795        C806   1.276       .  A
O795      Cd1172   2.079   1_545  S
Cd796       O798   2.066       .  S
Cd797      O1182   2.075   1_545  S
Cd797       O799   2.003       .  S
O798        C808   1.274       .  A
O799      Cd1172   2.000   1_545  S
Cd800      O1167   2.079       .  S
Cd800       O802   2.065       .  S
Cd800      O1171   2.000       .  S
O801        C808   1.276       .  A
C803        O807   1.273       .  A
C803        C862   1.473       .  S
C804        C925   1.479       .  S
C806        C905   1.484       .  S
C808        C842   1.474       .  S
C809        O810   1.275       .  A
C809        C852   1.473       .  S
O810      Cd1169   2.075       .  S
C811        C812   1.405       .  A
C811        C816   1.398       .  A
C811        F818   1.358       .  S
C812        C813   1.406       .  A
C813        C814   1.398       .  A
C813        F820   1.358       .  S
C814        C815   1.405       .  A
C814        F819   1.358       .  S
C815        C816   1.406       .  A
C816        F817   1.357       .  S
C821        C822   1.405       .  A
C821        C826   1.397       .  A
C821        F828   1.358       .  S
C822        C823   1.408       .  A
C823        C824   1.398       .  A
C823        F830   1.358       .  S
C824        C825   1.404       .  A
C824        F829   1.358       .  S
C825        C826   1.405       .  A
C826        F827   1.358       .  S
C831        C832   1.406       .  A
C831        C836   1.400       .  A
C831        F838   1.358       .  S
C832        C833   1.406       .  A
C833        C834   1.401       .  A
C833        F840   1.358       .  S
C834        C835   1.408       .  A
C834        F839   1.358       .  S
C835        C836   1.405       .  A
C836        F837   1.358       .  S
C841        C842   1.404       .  A
C841        C846   1.399       .  A
C841        F848   1.358       .  S
C842        C843   1.406       .  A
C843        C844   1.399       .  A
C844        C845   1.404       .  A
C844        F849   1.358       .  S
C845        C846   1.407       .  A
C846        F847   1.357       .  S
C851        C852   1.405       .  A
C851        C856   1.398       .  A
C851        F858   1.358       .  S
C852        C853   1.404       .  A
C853        C854   1.398       .  A
C853        F860   1.358       .  S
C854        C855   1.409       .  A
C854        F859   1.357       .  S
C855        C856   1.407       .  A
C856        F857   1.358       .  S
C861        C862   1.406       .  A
C861        C866   1.399       .  A
C861        F868   1.358       .  S
C862        C863   1.404       .  A
C863        C864   1.397       .  A
C863        F870   1.358       .  S
C864        C865   1.407       .  A
C864        F869   1.357       .  S
C865        C866   1.406       .  A
C866        F867   1.358       .  S
C871        C872   1.401       .  A
C871        C876   1.398       .  A
C871        F878   1.358       .  S
C872        C873   1.404       .  A
C873        C874   1.402       .  A
C873        F880   1.358       .  S
C874        C875   1.411       .  A
C874        F879   1.358   1_655  S
C875        C876   1.412       .  A
C876        F877   1.358       .  S
C881        C882   1.400       .  A
C881        C886   1.396       .  A
C881        F888   1.357       .  S
C882        C883   1.404       .  A
C883        C884   1.400       .  A
C883        F890   1.358       .  S
C884        C885   1.411       .  A
C884        F889   1.358       .  S
C885        C886   1.411       .  A
C886        F887   1.358       .  S
C891        C892   1.405       .  A
C891        C896   1.400       .  A
C891        F898   1.358       .  S
C892        C893   1.401       .  A
C893        C894   1.395       .  A
C893        F900   1.357       .  S
C894        C895   1.409       .  A
C894        F899   1.358       .  S
C895        C896   1.409       .  A
C896        F897   1.358   1_545  S
C901        C902   1.399       .  A
C901        C906   1.397       .  A
C901        F908   1.358       .  S
C902        C903   1.402       .  A
C903        C904   1.399       .  A
C903        F910   1.358       .  S
C904        C905   1.410       .  A
C904        F909   1.358       .  S
C905        C906   1.412       .  A
C906        F907   1.358       .  S
C911        C912   1.408       .  A
C911        C916   1.398       .  A
C911        F918   1.358       .  S
C912        C913   1.410       .  A
C913        C914   1.399       .  A
C913        F920   1.358       .  S
C914        C915   1.403       .  A
C914        F919   1.358       .  S
C915        C916   1.403       .  A
C916        F917   1.357       .  S
C921        C922   1.405       .  A
C921        C926   1.398       .  A
C921        F928   1.358       .  S
C922        C923   1.402       .  A
C923        C924   1.398       .  A
C923        F930   1.358       .  S
C924        C925   1.409       .  A
C924        F929   1.358       .  S
C925        C926   1.407       .  A
C926        F927   1.358       .  S
C931        H932   1.110       .  S
C931        C937   1.536       .  S
C931        C936   1.535       .  S
C931        C935   1.534       .  S
C933        H934   1.110       .  S
C933        C939   1.535       .  S
C933        C938   1.535       .  S
C933        C940   1.532       .  S
C935        C938   1.373       .  D
C935       C1101   1.480       .  S
C936        C939   1.373       .  D
C936       C1108   1.480       .  S
C937        C940   1.370       .  D
C937       C1088   1.475       .  S
C938       C1068   1.478       .  S
C939       C1078   1.479       .  S
C940       C1058   1.481       .  S
C941        H942   1.112       .  S
C941        C947   1.535       .  S
C941        C946   1.536       .  S
C941        C945   1.538       .  S
C943        H944   1.112       .  S
C943        C949   1.534       .  S
C943        C948   1.535       .  S
C943        C950   1.538       .  S
C945        C948   1.377       .  D
C945       C1041   1.488       .  S
C946        C949   1.374       .  D
C946       C1031   1.484       .  S
C947        C950   1.377       .  D
C947       C1051   1.485       .  S
C948       C1008   1.483       .  S
C949       C1001   1.482       .  S
C950       C1021   1.490       .  S
O951        C967   1.275       .  A
C952        O968   1.276       .  A
C952        O965   1.274       .  A
C952       C1081   1.480       .  S
O953        C966   1.276       .  A
O954        C972   1.273       .  A
O955        C969   1.274       .  A
O955      Cd1331   2.068   1_545  S
O956        C967   1.275       .  A
O956       Cd959   2.073       .  S
Zn957      O1340   2.031       .  S
O958        C969   1.276       .  A
Cd959      O1327   2.068       .  S
Cd959      O1334   1.999       .  S
Cd960      O1336   2.076   1_545  S
O961        C971   1.273       .  A
O962      Cd1331   1.999   1_545  S
Cd963       O965   2.054       .  S
O964        C971   1.276       .  A
O964      Cd1332   2.076       .  S
C966        O970   1.275       .  A
C966       C1018   1.480       .  S
C967       C1071   1.485       .  S
O968      Zn1329   2.031   1_545  S
C969       C1061   1.488       .  S
C971       C1011   1.471       .  S
C972        O973   1.276       .  A
C972        C998   1.473       .  S
O974        C990   1.273       .  A
O974      Zn1352   2.007   1_545  S
C975        O991   1.275       .  A
C975        O988   1.274       .  A
C975       C1098   1.482       .  S
O976        C989   1.276       .  A
O977        C995   1.274       .  A
O977       Cd986   2.062       .  S
O978        C992   1.273       .  A
O979        C990   1.275       .  A
O979       Cd982   2.074       .  S
Zn980      O1346   2.007       .  S
Zn980       O993   2.010       .  S
O981        C992   1.276       .  A
O981      Cd1358   2.079   1_545  S
Cd982       O984   2.066       .  S
Cd983      O1368   2.075   1_545  S
Cd983       O985   2.003       .  S
O984        C994   1.274       .  A
O985      Cd1358   2.000   1_545  S
Cd986      O1353   2.079       .  S
Cd986       O988   2.065       .  S
Cd986      O1357   2.000       .  S
O987        C994   1.276       .  A
C989        O993   1.273       .  A
C989       C1048   1.473       .  S
C990       C1111   1.479       .  S
C992       C1091   1.484       .  S
C994       C1028   1.474       .  S
C995        O996   1.275       .  A
C995       C1038   1.473       .  S
O996      Cd1355   2.075       .  S
C997        C998   1.405       .  A
C997       C1002   1.398       .  A
C997       F1004   1.358       .  S
C998        C999   1.406       .  A
C999       C1000   1.398       .  A
C999       F1006   1.358       .  S
C1000      C1001   1.405       .  A
C1000      F1005   1.358       .  S
C1001      C1002   1.406       .  A
C1002      F1003   1.357       .  S
C1007      C1008   1.405       .  A
C1007      C1012   1.397       .  A
C1007      F1014   1.358       .  S
C1008      C1009   1.408       .  A
C1009      C1010   1.398       .  A
C1009      F1016   1.358       .  S
C1010      C1011   1.404       .  A
C1010      F1015   1.358       .  S
C1011      C1012   1.405       .  A
C1012      F1013   1.358       .  S
C1017      C1018   1.406       .  A
C1017      C1022   1.400       .  A
C1017      F1024   1.358       .  S
C1018      C1019   1.406       .  A
C1019      C1020   1.401       .  A
C1019      F1026   1.358       .  S
C1020      C1021   1.408       .  A
C1020      F1025   1.358       .  S
C1021      C1022   1.405       .  A
C1022      F1023   1.358       .  S
C1027      C1028   1.404       .  A
C1027      C1032   1.399       .  A
C1027      F1034   1.358       .  S
C1028      C1029   1.406       .  A
C1029      C1030   1.399       .  A
C1030      C1031   1.404       .  A
C1030      F1035   1.358       .  S
C1031      C1032   1.407       .  A
C1032      F1033   1.357       .  S
C1037      C1038   1.405       .  A
C1037      C1042   1.398       .  A
C1037      F1044   1.358       .  S
C1038      C1039   1.404       .  A
C1039      C1040   1.398       .  A
C1039      F1046   1.358       .  S
C1040      C1041   1.409       .  A
C1040      F1045   1.357       .  S
C1041      C1042   1.407       .  A
C1042      F1043   1.358       .  S
C1047      C1048   1.406       .  A
C1047      C1052   1.399       .  A
C1047      F1054   1.358       .  S
C1048      C1049   1.404       .  A
C1049      C1050   1.397       .  A
C1049      F1056   1.358       .  S
C1050      C1051   1.407       .  A
C1050      F1055   1.357       .  S
C1051      C1052   1.406       .  A
C1052      F1053   1.358       .  S
C1057      C1058   1.401       .  A
C1057      C1062   1.398       .  A
C1057      F1064   1.358       .  S
C1058      C1059   1.404       .  A
C1059      C1060   1.402       .  A
C1059      F1066   1.358       .  S
C1060      C1061   1.411       .  A
C1060      F1065   1.358   1_655  S
C1061      C1062   1.412       .  A
C1062      F1063   1.358       .  S
C1067      C1068   1.400       .  A
C1067      C1072   1.396       .  A
C1067      F1074   1.357       .  S
C1068      C1069   1.404       .  A
C1069      C1070   1.400       .  A
C1069      F1076   1.358       .  S
C1070      C1071   1.411       .  A
C1070      F1075   1.358       .  S
C1071      C1072   1.411       .  A
C1072      F1073   1.358       .  S
C1077      C1078   1.405       .  A
C1077      C1082   1.400       .  A
C1077      F1084   1.358       .  S
C1078      C1079   1.401       .  A
C1079      C1080   1.395       .  A
C1079      F1086   1.357       .  S
C1080      C1081   1.409       .  A
C1080      F1085   1.358       .  S
C1081      C1082   1.409       .  A
C1082      F1083   1.358   1_545  S
C1087      C1088   1.399       .  A
C1087      C1092   1.397       .  A
C1087      F1094   1.358       .  S
C1088      C1089   1.402       .  A
C1089      C1090   1.399       .  A
C1089      F1096   1.358       .  S
C1090      C1091   1.410       .  A
C1090      F1095   1.358       .  S
C1091      C1092   1.412       .  A
C1092      F1093   1.358       .  S
C1097      C1098   1.408       .  A
C1097      C1102   1.398       .  A
C1097      F1104   1.358       .  S
C1098      C1099   1.410       .  A
C1099      C1100   1.399       .  A
C1099      F1106   1.358       .  S
C1100      C1101   1.403       .  A
C1100      F1105   1.358       .  S
C1101      C1102   1.403       .  A
C1102      F1103   1.357       .  S
C1107      C1108   1.405       .  A
C1107      C1112   1.398       .  A
C1107      F1114   1.358       .  S
C1108      C1109   1.402       .  A
C1109      C1110   1.398       .  A
C1109      F1116   1.358       .  S
C1110      C1111   1.409       .  A
C1110      F1115   1.358       .  S
C1111      C1112   1.407       .  A
C1112      F1113   1.358       .  S
C1117      H1118   1.110       .  S
C1117      C1123   1.536       .  S
C1117      C1122   1.535       .  S
C1117      C1121   1.534       .  S
C1119      H1120   1.110       .  S
C1119      C1125   1.535       .  S
C1119      C1124   1.535       .  S
C1119      C1126   1.532       .  S
C1121      C1124   1.373       .  D
C1121      C1287   1.480       .  S
C1122      C1125   1.373       .  D
C1122      C1294   1.480       .  S
C1123      C1126   1.370       .  D
C1123      C1274   1.475       .  S
C1124      C1254   1.478       .  S
C1125      C1264   1.479       .  S
C1126      C1244   1.481       .  S
C1127      H1128   1.112       .  S
C1127      C1133   1.535       .  S
C1127      C1132   1.536       .  S
C1127      C1131   1.538       .  S
C1129      H1130   1.112       .  S
C1129      C1135   1.534       .  S
C1129      C1134   1.535       .  S
C1129      C1136   1.538       .  S
C1131      C1134   1.377       .  D
C1131      C1227   1.488       .  S
C1132      C1135   1.374       .  D
C1132      C1217   1.484       .  S
C1133      C1136   1.377       .  D
C1133      C1237   1.485       .  S
C1134      C1194   1.483       .  S
C1135      C1187   1.482       .  S
C1136      C1207   1.490       .  S
O1137      C1153   1.275       .  A
C1138      O1154   1.276       .  A
C1138      O1151   1.274       .  A
C1138      C1267   1.480       .  S
O1139      C1152   1.276       .  A
O1140      C1158   1.273       .  A
O1140     Cd1335   2.063   1_554  S
O1141      C1155   1.274       .  A
O1142      C1153   1.275       .  A
O1142     Cd1145   2.073       .  S
Zn1143     O1342   2.029       .  S
O1144      C1155   1.276       .  A
Cd1145     O1333   2.060       .  S
Cd1146     O1334   2.005   1_554  S
O1147      C1157   1.273       .  A
O1147     Cd1331   2.060   1_554  S
O1148     Cd1332   2.005       .  S
Cd1149     O1326   2.063       .  S
Cd1149     O1151   2.054       .  S
O1150      C1157   1.276       .  A
C1152      O1156   1.275       .  A
C1152      C1204   1.480       .  S
C1153      C1257   1.485       .  S
C1155      C1247   1.488       .  S
O1156     Zn1329   2.029   1_554  S
C1157      C1197   1.471       .  S
C1158      O1159   1.276       .  A
C1158      C1184   1.473       .  S
O1160      C1176   1.273       .  A
C1161      O1177   1.275       .  A
C1161      O1174   1.274       .  A
C1161      C1284   1.482       .  S
O1162      C1175   1.276       .  A
O1163      C1181   1.274       .  A
O1163     Cd1172   2.062       .  S
O1164      C1178   1.273       .  A
O1165      C1176   1.275       .  A
O1165     Cd1168   2.074       .  S
Zn1166     O1179   2.010       .  S
O1167      C1178   1.276       .  A
Cd1168     O1170   2.066       .  S
Cd1169     O1171   2.003       .  S
O1170      C1180   1.274       .  A
Cd1172     O1174   2.065       .  S
O1173      C1180   1.276       .  A
C1175      O1179   1.273       .  A
C1175      C1234   1.473       .  S
C1176      C1297   1.479       .  S
C1178      C1277   1.484       .  S
C1180      C1214   1.474       .  S
C1181      O1182   1.275       .  A
C1181      C1224   1.473       .  S
C1183      C1184   1.405       .  A
C1183      C1188   1.398       .  A
C1183      F1190   1.358       .  S
C1184      C1185   1.406       .  A
C1185      C1186   1.398       .  A
C1185      F1192   1.358       .  S
C1186      C1187   1.405       .  A
C1186      F1191   1.358       .  S
C1187      C1188   1.406       .  A
C1188      F1189   1.357       .  S
C1193      C1194   1.405       .  A
C1193      C1198   1.397       .  A
C1193      F1200   1.358       .  S
C1194      C1195   1.408       .  A
C1195      C1196   1.398       .  A
C1195      F1202   1.358       .  S
C1196      C1197   1.404       .  A
C1196      F1201   1.358       .  S
C1197      C1198   1.405       .  A
C1198      F1199   1.358       .  S
C1203      C1204   1.406       .  A
C1203      C1208   1.400       .  A
C1203      F1210   1.358       .  S
C1204      C1205   1.406       .  A
C1205      C1206   1.401       .  A
C1205      F1212   1.358   1_565  S
C1206      C1207   1.408       .  A
C1206      F1211   1.358       .  S
C1207      C1208   1.405       .  A
C1208      F1209   1.358       .  S
C1213      C1214   1.404       .  A
C1213      C1218   1.399       .  A
C1213      F1220   1.358       .  S
C1214      C1215   1.406       .  A
C1215      C1216   1.399       .  A
C1216      C1217   1.404       .  A
C1216      F1221   1.358       .  S
C1217      C1218   1.407       .  A
C1218      F1219   1.357       .  S
C1223      C1224   1.405       .  A
C1223      C1228   1.398       .  A
C1223      F1230   1.358       .  S
C1224      C1225   1.404       .  A
C1225      C1226   1.398       .  A
C1225      F1232   1.358       .  S
C1226      C1227   1.409       .  A
C1226      F1231   1.357       .  S
C1227      C1228   1.407       .  A
C1228      F1229   1.358       .  S
C1233      C1234   1.406       .  A
C1233      C1238   1.399       .  A
C1233      F1240   1.358       .  S
C1234      C1235   1.404       .  A
C1235      C1236   1.397       .  A
C1235      F1242   1.358       .  S
C1236      C1237   1.407       .  A
C1236      F1241   1.357       .  S
C1237      C1238   1.406       .  A
C1238      F1239   1.358       .  S
C1243      C1244   1.401       .  A
C1243      C1248   1.398       .  A
C1243      F1250   1.358       .  S
C1244      C1245   1.404       .  A
C1245      C1246   1.402       .  A
C1245      F1252   1.358       .  S
C1246      C1247   1.411       .  A
C1246      F1251   1.358   1_655  S
C1247      C1248   1.412       .  A
C1248      F1249   1.358       .  S
C1253      C1254   1.400       .  A
C1253      C1258   1.396       .  A
C1253      F1260   1.357       .  S
C1254      C1255   1.404       .  A
C1255      C1256   1.400       .  A
C1255      F1262   1.358       .  S
C1256      C1257   1.411       .  A
C1256      F1261   1.358       .  S
C1257      C1258   1.411       .  A
C1258      F1259   1.358       .  S
C1263      C1264   1.405       .  A
C1263      C1268   1.400       .  A
C1263      F1270   1.358       .  S
C1264      C1265   1.401       .  A
C1265      C1266   1.395       .  A
C1265      F1272   1.357       .  S
C1266      C1267   1.409       .  A
C1266      F1271   1.358       .  S
C1267      C1268   1.409       .  A
C1268      F1269   1.358       .  S
C1273      C1274   1.399       .  A
C1273      C1278   1.397       .  A
C1273      F1280   1.358       .  S
C1274      C1275   1.402       .  A
C1275      C1276   1.399       .  A
C1275      F1282   1.358       .  S
C1276      C1277   1.410       .  A
C1276      F1281   1.358       .  S
C1277      C1278   1.412       .  A
C1278      F1279   1.358       .  S
C1283      C1284   1.408       .  A
C1283      C1288   1.398       .  A
C1283      F1290   1.358       .  S
C1284      C1285   1.410       .  A
C1285      C1286   1.399       .  A
C1285      F1292   1.358       .  S
C1286      C1287   1.403       .  A
C1286      F1291   1.358       .  S
C1287      C1288   1.403       .  A
C1288      F1289   1.357       .  S
C1293      C1294   1.405       .  A
C1293      C1298   1.398       .  A
C1293      F1300   1.358       .  S
C1294      C1295   1.402       .  A
C1295      C1296   1.398       .  A
C1295      F1302   1.358       .  S
C1296      C1297   1.409       .  A
C1296      F1301   1.358       .  S
C1297      C1298   1.407       .  A
C1298      F1299   1.358       .  S
C1303      H1304   1.110       .  S
C1303      C1309   1.536       .  S
C1303      C1308   1.535       .  S
C1303      C1307   1.534       .  S
C1305      H1306   1.110       .  S
C1305      C1311   1.535       .  S
C1305      C1310   1.535       .  S
C1305      C1312   1.532       .  S
C1307      C1310   1.373       .  D
C1307      C1473   1.480       .  S
C1308      C1311   1.373       .  D
C1308      C1480   1.480       .  S
C1309      C1312   1.370       .  D
C1309      C1460   1.475       .  S
C1310      C1440   1.478       .  S
C1311      C1450   1.479       .  S
C1312      C1430   1.481       .  S
C1313      H1314   1.112       .  S
C1313      C1319   1.535       .  S
C1313      C1318   1.536       .  S
C1313      C1317   1.538       .  S
C1315      H1316   1.112       .  S
C1315      C1321   1.534       .  S
C1315      C1320   1.535       .  S
C1315      C1322   1.538       .  S
C1317      C1320   1.377       .  D
C1317      C1413   1.488       .  S
C1318      C1321   1.374       .  D
C1318      C1403   1.484       .  S
C1319      C1322   1.377       .  D
C1319      C1423   1.485       .  S
C1320      C1380   1.483       .  S
C1321      C1373   1.482       .  S
C1322      C1393   1.490       .  S
O1323      C1339   1.275       .  A
C1324      O1340   1.276       .  A
C1324      O1337   1.274       .  A
C1324      C1453   1.480       .  S
O1325      C1338   1.276       .  A
O1326      C1344   1.273       .  A
O1327      C1341   1.274       .  A
O1328      C1339   1.275       .  A
O1328     Cd1331   2.073       .  S
O1330      C1341   1.276       .  A
O1333      C1343   1.273       .  A
Cd1335     O1337   2.054       .  S
O1336      C1343   1.276       .  A
C1338      O1342   1.275       .  A
C1338      C1390   1.480       .  S
C1339      C1443   1.485       .  S
C1341      C1433   1.488       .  S
C1343      C1383   1.471       .  S
C1344      O1345   1.276       .  A
C1344      C1370   1.473       .  S
O1346      C1362   1.273       .  A
C1347      O1363   1.275       .  A
C1347      O1360   1.274       .  A
C1347      C1470   1.482       .  S
O1348      C1361   1.276       .  A
O1349      C1367   1.274       .  A
O1349     Cd1358   2.062       .  S
O1350      C1364   1.273       .  A
O1351      C1362   1.275       .  A
O1351     Cd1354   2.074       .  S
Zn1352     O1365   2.010       .  S
O1353      C1364   1.276       .  A
Cd1354     O1356   2.066       .  S
Cd1355     O1357   2.003       .  S
O1356      C1366   1.274       .  A
Cd1358     O1360   2.065       .  S
O1359      C1366   1.276       .  A
C1361      O1365   1.273       .  A
C1361      C1420   1.473       .  S
C1362      C1483   1.479       .  S
C1364      C1463   1.484       .  S
C1366      C1400   1.474       .  S
C1367      O1368   1.275       .  A
C1367      C1410   1.473       .  S
C1369      C1370   1.405       .  A
C1369      C1374   1.398       .  A
C1369      F1376   1.358       .  S
C1370      C1371   1.406       .  A
C1371      C1372   1.398       .  A
C1371      F1378   1.358       .  S
C1372      C1373   1.405       .  A
C1372      F1377   1.358       .  S
C1373      C1374   1.406       .  A
C1374      F1375   1.357       .  S
C1379      C1380   1.405       .  A
C1379      C1384   1.397       .  A
C1379      F1386   1.358       .  S
C1380      C1381   1.408       .  A
C1381      C1382   1.398       .  A
C1381      F1388   1.358       .  S
C1382      C1383   1.404       .  A
C1382      F1387   1.358       .  S
C1383      C1384   1.405       .  A
C1384      F1385   1.358       .  S
C1389      C1390   1.406       .  A
C1389      C1394   1.400       .  A
C1389      F1396   1.358       .  S
C1390      C1391   1.406       .  A
C1391      C1392   1.401       .  A
C1391      F1398   1.358   1_565  S
C1392      C1393   1.408       .  A
C1392      F1397   1.358       .  S
C1393      C1394   1.405       .  A
C1394      F1395   1.358       .  S
C1399      C1400   1.404       .  A
C1399      C1404   1.399       .  A
C1399      F1406   1.358       .  S
C1400      C1401   1.406       .  A
C1401      C1402   1.399       .  A
C1402      C1403   1.404       .  A
C1402      F1407   1.358       .  S
C1403      C1404   1.407       .  A
C1404      F1405   1.357       .  S
C1409      C1410   1.405       .  A
C1409      C1414   1.398       .  A
C1409      F1416   1.358       .  S
C1410      C1411   1.404       .  A
C1411      C1412   1.398       .  A
C1411      F1418   1.358       .  S
C1412      C1413   1.409       .  A
C1412      F1417   1.357       .  S
C1413      C1414   1.407       .  A
C1414      F1415   1.358       .  S
C1419      C1420   1.406       .  A
C1419      C1424   1.399       .  A
C1419      F1426   1.358       .  S
C1420      C1421   1.404       .  A
C1421      C1422   1.397       .  A
C1421      F1428   1.358       .  S
C1422      C1423   1.407       .  A
C1422      F1427   1.357       .  S
C1423      C1424   1.406       .  A
C1424      F1425   1.358       .  S
C1429      C1430   1.401       .  A
C1429      C1434   1.398       .  A
C1429      F1436   1.358       .  S
C1430      C1431   1.404       .  A
C1431      C1432   1.402       .  A
C1431      F1438   1.358       .  S
C1432      C1433   1.411       .  A
C1432      F1437   1.358   1_655  S
C1433      C1434   1.412       .  A
C1434      F1435   1.358       .  S
C1439      C1440   1.400       .  A
C1439      C1444   1.396       .  A
C1439      F1446   1.357       .  S
C1440      C1441   1.404       .  A
C1441      C1442   1.400       .  A
C1441      F1448   1.358       .  S
C1442      C1443   1.411       .  A
C1442      F1447   1.358       .  S
C1443      C1444   1.411       .  A
C1444      F1445   1.358       .  S
C1449      C1450   1.405       .  A
C1449      C1454   1.400       .  A
C1449      F1456   1.358       .  S
C1450      C1451   1.401       .  A
C1451      C1452   1.395       .  A
C1451      F1458   1.357       .  S
C1452      C1453   1.409       .  A
C1452      F1457   1.358       .  S
C1453      C1454   1.409       .  A
C1454      F1455   1.358       .  S
C1459      C1460   1.399       .  A
C1459      C1464   1.397       .  A
C1459      F1466   1.358       .  S
C1460      C1461   1.402       .  A
C1461      C1462   1.399       .  A
C1461      F1468   1.358       .  S
C1462      C1463   1.410       .  A
C1462      F1467   1.358       .  S
C1463      C1464   1.412       .  A
C1464      F1465   1.358       .  S
C1469      C1470   1.408       .  A
C1469      C1474   1.398       .  A
C1469      F1476   1.358       .  S
C1470      C1471   1.410       .  A
C1471      C1472   1.399       .  A
C1471      F1478   1.358       .  S
C1472      C1473   1.403       .  A
C1472      F1477   1.358       .  S
C1473      C1474   1.403       .  A
C1474      F1475   1.357       .  S
C1479      C1480   1.405       .  A
C1479      C1484   1.398       .  A
C1479      F1486   1.358       .  S
C1480      C1481   1.402       .  A
C1481      C1482   1.398       .  A
C1481      F1488   1.358       .  S
C1482      C1483   1.409       .  A
C1482      F1487   1.358       .  S
C1483      C1484   1.407       .  A
C1484      F1485   1.358       .  S
