geometry optimzed in LAMMPS
_audit_creation_date              2020-11-30 
_audit_creation_method            'lammps2cif' 
_symmetry_space_group_name_H-M    'P1' 
_symmetry_Int_Tables_number       1 
_symmetry_cell_setting            triclinic 
loop_ 
_symmetry_equiv_pos_as_xyz 
  x,y,z 
_cell_length_a                    52.06275488 
_cell_length_b                    52.53926500508928 
_cell_length_c                    36.95040783971888 
_cell_angle_alpha                 92.68250890784633 
_cell_angle_beta                  88.14969326094528 
_cell_angle_gamma                 120.36332385359088 
loop_ 
_atom_site_label 
_atom_site_type_symbol 
_atom_site_fract_x 
_atom_site_fract_y 
_atom_site_fract_z 
_atom_site_charge 
C1          C  0.04129015  0.08179671  0.62657872     0.82000
N2          N  0.06373981  0.07914206  0.64041685    -0.76300
C3          C  0.06477253  0.07598007  0.67663226     0.84400
N4          N  0.04305806  0.07543697  0.69889251    -0.76300
C5          C  0.02046012  0.07786924  0.68528807     0.84500
N6          N  0.01986522  0.08116819  0.64913051    -0.78000
C7          C  0.03055741  0.39610867  0.62499989     0.82000
N8          N  0.04931429  0.42114309  0.64374594    -0.76300
C9          C  0.04672312  0.42321585  0.68012035     0.84400
N10         N  0.02485759  0.39977264  0.69811556    -0.76300
C11         C  0.00548665  0.37454172  0.67910256     0.84500
N12         N  0.00860704  0.37291729  0.64266713    -0.78000
C13         C  0.45577992  0.47298188  0.85649103     0.82000
N14         N  0.48562515  0.48917937  0.86125078    -0.76300
C15         C  0.99946431  0.47225328  0.86609775     0.84400
N16         N  0.48708602  0.44571026  0.86789770    -0.76300
C17         C  0.45721462  0.42950079  0.86325058     0.84500
N18         N  0.44161041  0.44311917  0.85706593    -0.78000
O19         O  0.35549234  0.05535511  0.74851497    -0.83600
O20         O  0.41421941  0.10003565  0.74861349    -0.80600
C21         C  0.41475837  0.11408053  0.77764147     0.99900
O22         O  0.41505963  0.10408116  0.80794314    -0.80700
O23         O  0.40333763  0.06271927  0.85973370    -0.83300
C24         C  0.37583890  0.04923028  0.86738109     1.04400
O25         O  0.35699613  0.03346744  0.84361404    -0.76100
O26         O  0.33332040  0.01288933  0.77572093    -0.76300
C27         C  0.33219725  0.03354036  0.76078724     1.04400
O28         O  0.37249093  0.01415096  0.71957199    -0.83600
O29         O  0.43192946  0.05675533  0.72739070    -0.80600
C30         C  0.45614781  0.07426098  0.74317590     0.99900
O31         O  0.45580578  0.08821804  0.77187623    -0.80700
O32         O  0.43833669  0.04363868  0.81907021    -0.83300
C33         C  0.42175170  0.01862747  0.83208324     1.04400
O34         O  0.38567412  0.50356451  0.82760965    -0.76100
O35         O  0.35951094  0.48178568  0.76184360    -0.76200
C36         C  0.35363298  0.48158527  0.72902958     1.04300
Cr37       Cr  0.39374523  0.05594986  0.73955923     1.93700
Cr38       Cr  0.42565622  0.07282211  0.81250610     1.93200
Cr39       Cr  0.36664086  0.01361043  0.80295209     1.39100
O40         O  0.39513940  0.04740752  0.78518174    -1.21300
O41         O  0.40454760  0.25004035  0.74417110    -0.83600
O42         O  0.34695270  0.23874627  0.74868406    -0.80600
C43         C  0.32464696  0.23806134  0.76403226     0.99900
O44         O  0.32715329  0.26026095  0.78199887    -0.80700
O45         O  0.35358563  0.26138415  0.84577668    -0.83300
C46         C  0.37357122  0.26523480  0.86728078     1.04400
O47         O  0.40077260  0.28112750  0.85876608    -0.76100
O48         O  0.41080471  0.25084841  0.80294376    -0.76300
C49         C  0.40834835  0.23887894  0.77194413     1.04400
O50         O  0.42351412  0.31157772  0.72782871    -0.83600
O51         O  0.36566110  0.29861858  0.72656820    -0.80600
C52         C  0.36548318  0.31999762  0.74396160     0.99900
O53         O  0.36833918  0.32274672  0.77774892    -0.80700
O54         O  0.39076444  0.32460597  0.84337692    -0.83300
C55         C  0.41815546  0.34230393  0.83788287     1.04400
O56         O  0.43390493  0.33429772  0.81984992    -0.76100
O57         O  0.44952327  0.30564826  0.76824225    -0.76200
C58         C  0.44837300  0.31882207  0.74118583     1.04300
Cr59       Cr  0.38548575  0.27548043  0.74023310     1.93700
Cr60       Cr  0.36201890  0.29164486  0.81019624     1.93200
Cr61       Cr  0.42123526  0.29237038  0.81060947     1.39100
O62         O  0.38934330  0.28616560  0.78696208    -1.21300
O63         O  0.19701522  0.08726695  0.75125885    -0.83600
O64         O  0.18780551  0.03159943  0.73921584    -0.80600
C65         C  0.19913530  0.02655319  0.76591704     0.99900
O66         O  0.18624575  0.02095114  0.79644329    -0.80700
O67         O  0.15487745  0.02693243  0.85520627    -0.83300
C68         C  0.16924557  0.05362132  0.86681793     1.04400
O69         O  0.17248893  0.07399302  0.84714848    -0.76100
O70         O  0.17400058  0.10398754  0.78704387    -0.76300
C71         C  0.19655785  0.10828213  0.76835921     1.04400
O72         O  0.13674621  0.06834742  0.72734695    -0.83600
O73         O  0.12652192  0.01207538  0.72041136    -0.80600
C74         C  0.10597505  0.48214961  0.74354545     0.99900
O75         O  0.12129244  0.48255842  0.76951491    -0.80700
O76         O  0.09425975  0.49925151  0.82235302    -0.83300
C77         C  0.09184813  0.00922686  0.83190100     1.04400
O78         O  0.10892900  0.03619133  0.84040024    -0.76100
O79         O  0.11129642  0.06221378  0.77790352    -0.76200
C80         C  0.11456853  0.06692600  0.74460770     1.04300
Cr81       Cr  0.16109626  0.04922661  0.73833311     1.93700
Cr82       Cr  0.14381653  0.00924686  0.80410710     1.93200
Cr83       Cr  0.14241951  0.06712502  0.81084704     1.39100
O84         O  0.14929291  0.04196449  0.78438667    -1.21300
C85         C  0.34793056  0.39242271  0.62881513     0.82000
N86         N  0.35172284  0.37043364  0.64107129    -0.76300
C87         C  0.35566496  0.36910304  0.67705571     0.84400
N88         N  0.35598587  0.39008635  0.70049206    -0.76300
C89         C  0.35219224  0.41198513  0.68847444     0.84500
N90         N  0.34800495  0.41288883  0.65264157    -0.78000
C91         C  0.20862124  0.40523363  0.30076551     0.82000
N92         N  0.18088659  0.39816762  0.31261745    -0.76300
C93         C  0.17345540  0.39343734  0.34819666     0.84400
N94         N  0.19385551  0.39541612  0.37205656    -0.76300
C95         C  0.22147454  0.40195236  0.36037360     0.84500
N96         N  0.22876363  0.40707092  0.32470935    -0.78000
C97         C  0.51356206  0.20919192  0.30711415     0.82000
N98         N  0.51331267  0.18739989  0.32589311    -0.76300
C99         C  0.51718376  0.19072616  0.36230595     0.84400
N100        N  0.52100865  0.21547920  0.37973086    -0.76300
C101        C  0.52108478  0.23715330  0.36157883     0.84500
N102        N  0.51737767  0.23416525  0.32505264    -0.78000
C103        C  0.12350751  0.29682734  0.52820760     0.82000
N104        N  0.11047918  0.26707635  0.52492414    -0.76300
C105        C  0.12747687  0.25427737  0.52291404     0.84400
N106        N  0.15754188  0.27124454  0.52318727    -0.76300
C107        C  0.17062147  0.30102001  0.52648845     0.84500
N108        N  0.15361962  0.31386408  0.52838795    -0.78000
O109        O  0.00992454  0.36948184  0.41634559    -0.83600
O110        O  0.06848725  0.41409950  0.41336771    -0.80600
C111        C  0.06977046  0.42851509  0.44223940     0.99900
O112        O  0.06902190  0.41834777  0.47260471    -0.80700
O113        O  0.05691646  0.37798421  0.52399899    -0.83300
C114        C  0.02921164  0.36527055  0.53011491     1.04400
O115        O  0.01089303  0.34745928  0.50720568    -0.76100
O116        O  0.48821820  0.32981134  0.43606803    -0.76300
C117        C  0.48692117  0.35040557  0.42143559     1.04400
O118        O  0.02658234  0.32806995  0.38641875    -0.83600
O119        O  0.08589832  0.37141614  0.39230920    -0.80600
C120        C  0.10994846  0.38914471  0.40827412     0.99900
O121        O  0.10969324  0.40279078  0.43725057    -0.80700
O122        O  0.09352927  0.35977479  0.48552563    -0.83300
C123        C  0.07760897  0.33546442  0.50017362     1.04400
O124        O  0.04955949  0.32331755  0.50126364    -0.76100
O125        O  0.03120078  0.30502297  0.43130560    -0.76200
C126        C  0.02780945  0.30647438  0.39804995     1.04300
Cr127      Cr  0.04782404  0.37011075  0.40529012     1.93700
Cr128      Cr  0.07998689  0.38782931  0.47781319     1.93200
Cr129      Cr  0.02223153  0.32788648  0.46841449     1.39100
O130        O  0.05001086  0.36190690  0.45065947    -1.21300
O131        O  0.04894656  0.05885191  0.41023290    -0.83600
O132        O  0.00398498  0.07174735  0.40754931    -0.80600
C133        C  0.48971538  0.05047937  0.42854524     0.99900
O134        O  0.49120923  0.07376668  0.44182489    -0.80700
O135        O  0.04511098  0.10765802  0.51732323    -0.83300
C136        C  0.05949679  0.09509198  0.52478565     1.04400
O137        O  0.07584313  0.09200478  0.50117745    -0.76100
O138        O  0.09397701  0.08425782  0.43299537    -0.76300
C139        C  0.07197119  0.06001406  0.42212772     1.04400
O140        O  0.08924544  0.11365237  0.37676696    -0.83600
O141        O  0.04620031  0.12963527  0.38321763    -0.80600
C142        C  0.02904897  0.13719357  0.39896917     0.99900
O143        O  0.01647543  0.12606784  0.42870484    -0.80700
O144        O  0.06182368  0.15826340  0.47563249    -0.83300
C145        C  0.08721795  0.16859504  0.48901811     1.04400
O146        O  0.09979858  0.15345373  0.48992070    -0.76100
O147        O  0.11454617  0.14589792  0.41984219    -0.76200
C148        C  0.11143836  0.13791805  0.38678383     1.04300
Cr149      Cr  0.04789197  0.09457156  0.39780468     1.93700
Cr150      Cr  0.03321640  0.11572520  0.47002207     1.93200
Cr151      Cr  0.09337662  0.11821962  0.45946507     1.39100
O152        O  0.05819886  0.10948277  0.44267834    -1.21300
O153        O  0.35075314  0.41481349  0.40350764    -0.83600
O154        O  0.35868914  0.36796259  0.40991717    -0.80600
C155        C  0.35726933  0.34591666  0.42363903     0.99900
O156        O  0.33421032  0.32759604  0.44051401    -0.80700
O157        O  0.33683505  0.35782547  0.50417198    -0.83300
C158        C  0.33453757  0.37519123  0.52678562     1.04400
O159        O  0.32064659  0.38824129  0.51872200    -0.76100
O160        O  0.35153788  0.42435021  0.46219585    -0.76300
C161        C  0.36320062  0.43118650  0.43120062     1.04400
O162        O  0.28954936  0.37418838  0.38546908    -0.83600
O163        O  0.29795495  0.32723446  0.38611732    -0.80600
C164        C  0.27517737  0.30769176  0.40259911     0.99900
O165        O  0.27225209  0.30988574  0.43625207    -0.80700
O166        O  0.27368573  0.33494236  0.50252133    -0.83300
C167        C  0.25738719  0.34591999  0.49775970     1.04400
O168        O  0.26645028  0.36855876  0.47952186    -0.76100
O169        O  0.29607602  0.40832646  0.42674780    -0.76200
C170        C  0.28488698  0.39431301  0.39712688     1.04300
Cr171      Cr  0.32342643  0.37073101  0.39984990     1.93700
Cr172      Cr  0.30493765  0.33506905  0.46898926     1.93200
Cr173      Cr  0.30908481  0.39538601  0.46997901     1.39100
O174        O  0.31251434  0.36712096  0.44620110    -1.21300
C175        C  0.19741552  0.21768752  0.28246840     0.82000
N176        N  0.22043134  0.24344063  0.29622171    -0.76300
C177        C  0.22274422  0.24932581  0.33251790     0.84400
N178        N  0.20174188  0.22942928  0.35492471    -0.76300
C179        C  0.17875167  0.20375894  0.34183402     0.84500
N180        N  0.17670188  0.19772764  0.30543097    -0.78000
C181        C  0.37839651  0.06491474  0.97016822     0.82000
N182        N  0.39788252  0.08635534  0.99339474    -0.76300
C183        C  0.39378687  0.08354603  0.02980410     0.84400
N184        N  0.37015117  0.05878689  0.04291775    -0.76300
C185        C  0.35035005  0.03711706  0.01996628     0.84500
N186        N  0.35453481  0.04033214  0.98356043    -0.78000
C187        C  0.38294700  0.24920656  0.96395658     0.82000
N188        N  0.40543631  0.24909025  0.98123180    -0.76300
C189        C  0.40453790  0.24657803  0.01751793     0.84400
N190        N  0.38074297  0.24412594  0.03678782    -0.76300
C191        C  0.35802001  0.24428444  0.01987842     0.84500
N192        N  0.35917333  0.24690470  0.98327364    -0.78000
C193        C  0.29332274  0.14038589  0.18116663     0.82000
N194        N  0.32328668  0.15586098  0.18518251    -0.76300
C195        C  0.33813257  0.14155170  0.19176015     0.84400
N196        N  0.32312705  0.11172385  0.19338098    -0.76300
C197        C  0.29316447  0.09625596  0.18945004     0.84500
N198        N  0.27829814  0.11055546  0.18289326    -0.78000
O199        O  0.02196293  0.26148567  0.07711364    -0.83600
O200        O  0.03225860  0.21482601  0.07442028    -0.80600
C201        C  0.03061813  0.19129262  0.08390623     0.99900
O202        O  0.00679684  0.17058702  0.09710933    -0.80700
O203        O  0.48699966  0.19487388  0.19609649    -0.83300
C204        C  0.50354996  0.22106612  0.20834559     1.04400
O205        O  0.50922561  0.24266264  0.18950547    -0.76100
O206        O  0.02451388  0.26377971  0.13632034    -0.76300
C207        C  0.03502467  0.27484375  0.10609719     1.04400
O208        O  0.47515618  0.24270666  0.07216467    -0.83600
O209        O  0.46043531  0.18529931  0.06199779    -0.80600
C210        C  0.45254680  0.15933436  0.06990602     0.99900
O211        O  0.46225941  0.15442927  0.09816945    -0.80700
O212        O  0.43399996  0.16764032  0.15307493    -0.83300
C213        C  0.42662498  0.18249724  0.17396107     1.04400
O214        O  0.44536126  0.20871124  0.18376858    -0.76100
O215        O  0.44934342  0.23662341  0.12247357    -0.76200
C216        C  0.45311049  0.24164813  0.08931056     1.04300
Cr217      Cr  0.99648768  0.21780154  0.06690211     1.93700
Cr218      Cr  0.47584903  0.17870961  0.14488777     1.93200
Cr219      Cr  0.47965560  0.23881158  0.15444426     1.39100
O220        O  0.48415704  0.21272995  0.12673387    -1.21300
O221        O  0.24123718  0.41728486  0.07641480    -0.83600
O222        O  0.18412162  0.40590186  0.08434524    -0.80600
C223        C  0.16199961  0.40494618  0.10045030     0.99900
O224        O  0.16460058  0.42695432  0.11893918    -0.80700
O225        O  0.18995455  0.42357634  0.18087331    -0.83300
C226        C  0.20903096  0.42521257  0.20231803     1.04400
O227        O  0.23653992  0.44061282  0.19487554    -0.76100
O228        O  0.24558903  0.41304397  0.13449244    -0.76300
C229        C  0.24339429  0.40342192  0.10219956     1.04400
O230        O  0.26087322  0.47882961  0.06546200    -0.83600
O231        O  0.20269443  0.46637678  0.06713939    -0.80600
C232        C  0.20334891  0.48764584  0.08571718     0.99900
O233        O  0.20675598  0.48959418  0.11942371    -0.80700
O234        O  0.22830604  0.48668718  0.18411128    -0.83300
C235        C  0.25050055  0.00823022  0.16852243     1.04400
O236        O  0.27138577  0.49612781  0.16054858    -0.76100
O237        O  0.28591495  0.46989378  0.10451039    -0.76200
C238        C  0.28540228  0.48385733  0.07776504     1.04300
Cr239      Cr  0.22247970  0.44276461  0.07683483     1.93700
Cr240      Cr  0.19945593  0.45623913  0.14880410     1.93200
Cr241      Cr  0.25751043  0.45453759  0.14690682     1.39100
O242        O  0.22647064  0.45119638  0.12412301    -1.21300
O243        O  0.17394359  0.19424046  0.05591041    -0.83600
O244        O  0.21775905  0.25205253  0.06669817    -0.80600
C245        C  0.23927739  0.27410856  0.08199435     0.99900
O246        O  0.25955994  0.27187584  0.09687826    -0.80700
O247        O  0.23320896  0.24317659  0.15974741    -0.83300
C248        C  0.21637185  0.22281191  0.18052324     1.04400
O249        O  0.20455907  0.19603027  0.16969076    -0.76100
O250        O  0.16619814  0.18691581  0.11424683    -0.76300
C251        C  0.15767438  0.18946396  0.08384795     1.04400
O252        O  0.21888972  0.17989436  0.03385382    -0.83600
O253        O  0.26205517  0.23843706  0.03790467    -0.80600
C254        C  0.28360124  0.23763039  0.05160296     0.99900
O255        O  0.28315598  0.23270932  0.08471155    -0.80700
O256        O  0.26109842  0.20821195  0.15026953    -0.83300
C257        C  0.25088284  0.18088798  0.14450970     1.04400
O258        O  0.22775878  0.16542901  0.12618329    -0.76100
O259        O  0.18621588  0.15134046  0.07402577    -0.76200
C260        C  0.20093240  0.15449378  0.04488181     1.04300
Cr261      Cr  0.21861610  0.21575169  0.05213346     1.93700
Cr262      Cr  0.25673651  0.23696874  0.12091272     1.93200
Cr263      Cr  0.19809829  0.17748949  0.11929211     1.39100
O264        O  0.22446231  0.21009163  0.09751020    -1.21300
C265        C  0.18445732  0.04828527  0.96721956     0.82000
N266        N  0.18601215  0.02838884  0.98810455    -0.76300
C267        C  0.18805963  0.03253359  0.02479600     0.84400
N268        N  0.18811089  0.05637990  0.04049655    -0.76300
C269        C  0.18724888  0.07671791  0.02010867     0.84500
N270        N  0.18538956  0.07264995  0.98338905    -0.78000
C271        C  0.19721652  0.12835443  0.02336156    -0.14700
C272        C  0.18771366  0.10242120  0.03892762    -0.29800
H273        H  0.20483786  0.13111591  0.99535564     0.14400
H274        H  0.18230609  0.10062341  0.06767997     0.14900
C275        C  0.24367576  0.37644680  0.09459678    -0.16700
C276        C  0.24315695  0.35331383  0.08944866     0.07300
C277        C  0.24206305  0.32587019  0.08493572     0.09200
C278        C  0.24091172  0.30230184  0.08259207    -0.17600
C279        C  0.18973200  0.01144712  0.04838804    -0.14700
C280        C  0.19963294  0.51046929  0.06866028    -0.29800
H281        H  0.19627282  0.49348782  0.01527292     0.14400
H282        H  0.19992417  0.52778630  0.08625142     0.14900
C283        C  0.12896927  0.18674822  0.08082195    -0.16700
C284        C  0.10539974  0.18578286  0.07914920     0.07300
C285        C  0.07852728  0.18623960  0.07863418     0.09200
C286        C  0.05626508  0.18793133  0.07987512    -0.17600
C287        C  0.06158388  0.30336914  0.10434744    -0.16700
C288        C  0.08389654  0.32722562  0.10206510     0.07300
C289        C  0.11037663  0.35493463  0.09954506     0.09200
C290        C  0.13354241  0.37817151  0.09864408    -0.17600
C291        C  0.26559473  0.16713913  0.15961830    -0.11500
C292        C  0.27808489  0.15515370  0.17083379    -0.13100
C293        C  0.27786046  0.06468837  0.18718388    -0.11500
C294        C  0.26529701  0.03846612  0.18097677    -0.13100
C295        C  0.39638047  0.16950254  0.18605456    -0.11500
C296        C  0.36995617  0.15734420  0.19138175    -0.13100
C297        C  0.33249377  0.24130163  0.04196663    -0.14700
C298        C  0.30939267  0.24246870  0.02849952    -0.29800
H299        H  0.33270537  0.23765417  0.07062913     0.14400
H300        H  0.30899393  0.24624509  0.99992888     0.14900
C301        C  0.42926090  0.24604103  0.03517207    -0.14700
C302        C  0.43088064  0.24592587  0.07122259    -0.29800
H303        H  0.44602535  0.24485702  0.01802463     0.14400
H304        H  0.41396176  0.24692183  0.08826552     0.14900
C305        C  0.31410121  0.50644394  0.06184283    -0.14700
C306        C  0.32391218  0.01053843  0.03429233    -0.29800
H307        H  0.33383480  0.51473772  0.07836310     0.14400
H308        H  0.29763429  0.50717013  0.01073739     0.14900
C309        C  0.43258112  0.13497853  0.04481028    -0.14700
C310        C  0.41479007  0.10709787  0.05520134    -0.29800
H311        H  0.43122846  0.14063045  0.01729149     0.14400
H312        H  0.41453796  0.10179087  0.08332866     0.14900
C313        C  0.19606413  0.21029424  0.24309752    -0.14700
C314        C  0.21290116  0.23062363  0.21866968    -0.29800
H315        H  0.18194479  0.18738225  0.23427452     0.14400
H316        H  0.22636429  0.25364268  0.22746733     0.14900
C317        C  0.25145399  0.28118233  0.38396875    -0.14700
C318        C  0.24831883  0.27672369  0.34786704    -0.29800
H319        H  0.23496275  0.26465960  0.40165060     0.14400
H320        H  0.26443951  0.29307767  0.32974752     0.14900
C321        C  0.46139413  0.02390070  0.42668221    -0.16700
C322        C  0.43724609  0.00191833  0.42598514     0.07300
C323        C  0.41468539  0.48085247  0.42647596     0.09200
C324        C  0.39098838  0.45824815  0.42745172    -0.17600
C325        C  0.13351755  0.15668984  0.35925885    -0.14700
C326        C  0.15676488  0.18334233  0.36817054    -0.29800
H327        H  0.13009047  0.14880905  0.33114462     0.14400
H328        H  0.15989051  0.19094601  0.39640784     0.14900
C329        C  0.38250128  0.34198504  0.42003172    -0.16700
C330        C  0.40560525  0.34199195  0.41755265     0.07300
C331        C  0.43389328  0.34458549  0.41619872     0.09200
C332        C  0.45835260  0.34756584  0.41715043    -0.17600
C333        C  0.07270501  0.45703131  0.44025240    -0.16700
C334        C  0.07438500  0.48062284  0.43807349     0.07300
C335        C  0.07375330  0.01107718  0.42848003     0.09200
C336        C  0.07319440  0.03340661  0.42410242    -0.17600
C337        C  0.10196177  0.19806519  0.50390695    -0.11500
C338        C  0.11385254  0.22339506  0.51451475    -0.13100
C339        C  0.20212966  0.31874192  0.52161451    -0.11500
C340        C  0.22794768  0.33204479  0.51277477    -0.13100
C341        C  0.09184088  0.32139017  0.51553618    -0.11200
C342        C  0.10578821  0.31020299  0.52434285    -0.13100
C343        C  0.03196242  0.17019839  0.35068432    -0.14700
C344        C  0.02372078  0.15972418  0.38415296    -0.29800
H345        H  0.52057600  0.17384887  0.41310114     0.14400
H346        H  0.01304564  0.16861880  0.40220575     0.14900
C347        C  0.02488971  0.28306993  0.37200593    -0.14700
C348        C  0.02734608  0.25995537  0.38141357    -0.29800
H349        H  0.02138316  0.28551014  0.34385805     0.14400
H350        H  0.03104862  0.25754908  0.40950063     0.14900
C351        C  0.51386690  0.22665951  0.24611814    -0.14700
C352        C  0.50791499  0.20453064  0.26787608    -0.29800
H353        H  0.02247555  0.19012712  0.23208791     0.14400
H354        H  0.49781929  0.18203932  0.25681348     0.14900
C355        C  0.26728891  0.40176433  0.37410791    -0.14700
C356        C  0.24279313  0.40200781  0.38608594    -0.29800
H357        H  0.27184156  0.40210583  0.34517788     0.14400
H358        H  0.23684843  0.39921353  0.41467910     0.14900
C359        C  0.14354231  0.38691104  0.36060676    -0.14700
C360        C  0.13904358  0.39445995  0.39434744    -0.29800
H361        H  0.12547211  0.37741109  0.34126806     0.14400
H362        H  0.15778192  0.40573644  0.41266993     0.14900
C363        C  0.21797834  0.41343544  0.26289911    -0.14700
C364        C  0.19887831  0.41121771  0.23764149    -0.29800
H365        H  0.24153073  0.42336949  0.25632979     0.14400
H366        H  0.17526847  0.40092956  0.24404914     0.14900
C367        C  0.34181067  0.39367143  0.59038551    -0.14700
C368        C  0.34557005  0.37753453  0.56383922    -0.29800
H369        H  0.33300368  0.40776650  0.58399773     0.14400
H370        H  0.35492852  0.36387244  0.57002102     0.14900
C371        C  0.18011329  0.06138955  0.90469942    -0.14700
C372        C  0.17885402  0.04162597  0.92770623    -0.29800
H373        H  0.18772437  0.08386652  0.91457031     0.14400
H374        H  0.17208122  0.01937313  0.91767105     0.14900
C375        C  0.29584859  0.21144769  0.76172830    -0.16700
C376        C  0.27202922  0.18870694  0.76211422     0.07300
C377        C  0.24471462  0.16146682  0.76409355     0.09200
C378        C  0.22219061  0.13762653  0.76619010    -0.17600
C379        C  0.36558381  0.25346137  0.90392190    -0.14700
C380        C  0.38660478  0.25451679  0.92500499    -0.29800
H381        H  0.34322779  0.24590614  0.91437131     0.14400
H382        H  0.40851008  0.26113043  0.91356849     0.14900
C383        C  0.36143614  0.34254049  0.72652897    -0.14700
C384        C  0.35917722  0.34477319  0.69076838    -0.29800
H385        H  0.36070894  0.35883398  0.74508737     0.14400
H386        H  0.35981461  0.32876884  0.67163865     0.14900
C387        C  0.41511821  0.14178451  0.77565907    -0.16700
C388        C  0.41421757  0.16427565  0.77282882     0.07300
C389        C  0.41240144  0.19030129  0.76964751     0.09200
C390        C  0.41058404  0.21243124  0.76868860    -0.17600
C391        C  0.22723870  0.02715056  0.76145843    -0.16700
C392        C  0.25120068  0.02842684  0.75910229     0.07300
C393        C  0.27955303  0.03032197  0.75774284     0.09200
C394        C  0.30366990  0.03193470  0.75801744    -0.17600
C395        C  0.36593414  0.04981461  0.90527980    -0.14700
C396        C  0.38520795  0.06767340  0.93092340    -0.29800
H397        H  0.34316136  0.03382418  0.91269853     0.14400
H398        H  0.40764580  0.08424822  0.92304922     0.14900
C399        C  0.34931239  0.45691787  0.70407607    -0.14700
C400        C  0.35339365  0.43493433  0.71435463    -0.29800
H401        H  0.34406403  0.45770597  0.67608705     0.14400
H402        H  0.35870768  0.43421545  0.74234160     0.14900
C403        C  0.44294275  0.39805237  0.85937220    -0.11500
C404        C  0.43140512  0.37210080  0.85172341    -0.13100
C405        C  0.03124375  0.48896577  0.86349544    -0.11500
C406        C  0.05730795  0.50198086  0.85570433    -0.13100
C407        C  0.43995525  0.48719716  0.84634016    -0.11500
C408        C  0.42744763  0.49929118  0.83551396    -0.13100
C409        C  0.47690287  0.35509418  0.69437130    -0.14700
C410        C  0.47639599  0.34304433  0.72583094    -0.29800
H411        H  0.45667689  0.34568724  0.67856519     0.14400
H412        H  0.49695785  0.35106279  0.74058297     0.14900
C413        C  0.06761296  0.45149390  0.69848335    -0.14700
C414        C  0.08233862  0.45336765  0.72848037    -0.29800
H415        H  0.07378365  0.47143783  0.68418484     0.14400
H416        H  0.07768337  0.43333044  0.74152231     0.14900
C417        C  0.03659678  0.39351618  0.58653216    -0.14700
C418        C  0.01857743  0.37004719  0.56549688    -0.29800
H419        H  0.05779393  0.41058814  0.57585452     0.14400
H420        H  0.99675700  0.35343190  0.57514682     0.14900
C421        C  0.08950076  0.07322121  0.69151171    -0.14700
C422        C  0.09173148  0.07112035  0.72729520    -0.29800
H423        H  0.10576716  0.07260739  0.67289524     0.14400
H424        H  0.07512846  0.07156040  0.74547893     0.14900
C425        C  0.48833166  0.06709447  0.69705108    -0.14700
C426        C  0.48534692  0.07896241  0.72886761    -0.29800
H427        H  0.99958041  0.07771782  0.73884023     0.14400
H428        H  0.50507089  0.09296387  0.74488571     0.14900
C429        C  0.05863557  0.08558824  0.56220291    -0.14700
C430        C  0.04048980  0.08726079  0.58780029    -0.29800
H431        H  0.07403484  0.07840466  0.56917037     0.14400
H432        H  0.02464592  0.09374248  0.58029001     0.14900
C433        C  0.03297016  0.58274234  0.62885603     0.82000
N434        N  0.05509068  0.57956097  0.64270307    -0.76300
C435        C  0.05587065  0.57594372  0.67876197     0.84400
N436        N  0.03425664  0.57547648  0.70097117    -0.76300
C437        C  0.01190477  0.57830753  0.68749222     0.84500
N438        N  0.01143415  0.58205862  0.65136592    -0.78000
C439        C  0.03803521  0.89153996  0.63530063     0.82000
N440        N  0.05899639  0.91252714  0.65769925    -0.76300
C441        C  0.05490852  0.91144284  0.69427423     0.84400
N442        N  0.02953643  0.88875880  0.70836389    -0.76300
C443        C  0.00829290  0.86758818  0.68608888     0.84500
N444        N  0.01271638  0.86918210  0.64963898    -0.78000
C445        C  0.45892130  0.97021170  0.85840813     0.82000
N446        N  0.48902063  0.98339488  0.85884482    -0.76300
C447        C  0.00289130  0.96856222  0.85232309     0.84400
N448        N  0.48520595  0.93704380  0.86119343    -0.76300
C449        C  0.45511605  0.92378151  0.86076669     0.84500
N450        N  0.44193211  0.94033274  0.85888703    -0.78000
O451        O  0.33848592  0.54628798  0.74867787    -0.83600
O452        O  0.39609457  0.59004837  0.73725024    -0.80600
C453        C  0.40189110  0.60630360  0.76566320     0.99900
O454        O  0.40624929  0.59814190  0.79525075    -0.80700
O455        O  0.39819036  0.55973893  0.84950711    -0.83300
C456        C  0.37135972  0.54739412  0.86080761     1.04400
O457        O  0.35036016  0.53073854  0.83977196    -0.76100
O458        O  0.31953435  0.50452500  0.77665017    -0.76300
C459        C  0.31660628  0.52449769  0.76280991     1.04400
O460        O  0.35161156  0.50266240  0.71697161    -0.83600
O461        O  0.41016458  0.54578355  0.71189305    -0.80600
C462        C  0.43633129  0.56349498  0.72212310     0.99900
O463        O  0.44101339  0.57750252  0.75248901    -0.80700
O464        O  0.42808846  0.53665522  0.80363481    -0.83300
C465        C  0.41307672  0.51374314  0.82139577     1.04400
O466        O  0.39381594  0.00740901  0.83390163    -0.76100
O467        O  0.37331131  0.98945248  0.76507126    -0.76200
C468        C  0.37092496  0.99130424  0.73165218     1.04300
Cr469      Cr  0.37466171  0.54573963  0.73229628     1.93700
Cr470      Cr  0.41574776  0.56614659  0.79849359     1.93200
Cr471      Cr  0.35576898  0.50770874  0.79950887     1.39100
O472        O  0.38209606  0.53994328  0.77686392    -1.21300
O473        O  0.39711399  0.74548870  0.73937175    -0.83600
O474        O  0.34019709  0.73552090  0.74163052    -0.80600
C475        C  0.31784688  0.73330138  0.75867738     0.99900
O476        O  0.31997997  0.75367771  0.78021004    -0.80700
O477        O  0.34756942  0.75528240  0.84325286    -0.83300
C478        C  0.36792615  0.75990785  0.86460890     1.04400
O479        O  0.39481039  0.77605336  0.85539752    -0.76100
O480        O  0.40259317  0.74467514  0.79823551    -0.76300
C481        C  0.40016239  0.73339111  0.76673694     1.04400
O482        O  0.41819674  0.80793327  0.72529225    -0.83600
O483        O  0.36110787  0.79667273  0.72342062    -0.80600
C484        C  0.35909292  0.81639132  0.74240142     0.99900
O485        O  0.35932443  0.81659990  0.77636870    -0.80700
O486        O  0.38410909  0.81897518  0.84016589    -0.83300
C487        C  0.41156912  0.83656095  0.83450709     1.04400
O488        O  0.42726917  0.82846144  0.81634712    -0.76100
O489        O  0.44232419  0.79870648  0.76468296    -0.76200
C490        C  0.44246414  0.81304215  0.73829985     1.04300
Cr491      Cr  0.37936519  0.77205955  0.73607049     1.93700
Cr492      Cr  0.35483748  0.78553696  0.80780179     1.93200
Cr493      Cr  0.41414234  0.78642845  0.80678026     1.39100
O494        O  0.38240604  0.78102844  0.78339961    -1.21300
O495        O  0.18595693  0.58257969  0.74575284    -0.83600
O496        O  0.17399236  0.52548282  0.74273920    -0.80600
C497        C  0.18760279  0.52386910  0.76969537     0.99900
O498        O  0.17777196  0.52291181  0.80147929    -0.80700
O499        O  0.14917967  0.53309381  0.85916967    -0.83300
C500        C  0.16581909  0.56015743  0.86722957     1.04400
O501        O  0.16870050  0.57940530  0.84587870    -0.76100
O502        O  0.16777524  0.60407102  0.78222339    -0.76300
C503        C  0.18825447  0.60541127  0.76152711     1.04400
O504        O  0.12488621  0.56376731  0.72782427    -0.83600
O505        O  0.11114490  0.50610298  0.73061713    -0.80600
C506        C  0.11947136  0.98666150  0.72988780     0.99900
O507        O  0.13039553  0.98334911  0.75827327    -0.80700
O508        O  0.10114125  0.99504683  0.81280366    -0.83300
C509        C  0.08670393  0.51530797  0.84052366     1.04400
O510        O  0.10437664  0.54281473  0.84501651    -0.76100
O511        O  0.10403915  0.56447081  0.78012171    -0.76200
C512        C  0.10494828  0.56576150  0.74622579     1.04300
Cr513      Cr  0.14837483  0.54428227  0.74027501     1.93700
Cr514      Cr  0.13610584  0.51191544  0.81125784     1.93200
Cr515      Cr  0.13669224  0.57058318  0.81128799     1.39100
O516        O  0.14066171  0.54257129  0.78755328    -1.21300
C517        C  0.35127297  0.89657155  0.63054959     0.82000
N518        N  0.35306880  0.87335716  0.64247635    -0.76300
C519        C  0.35815175  0.87197826  0.67797493     0.84400
N520        N  0.36195717  0.89436969  0.70149477    -0.76300
C521        C  0.36060393  0.91783814  0.68983923     0.84500
N522        N  0.35489513  0.91861699  0.65436802    -0.78000
C523        C  0.20815821  0.90627676  0.30026244     0.82000
N524        N  0.18139300  0.90169360  0.31277244    -0.76300
C525        C  0.17396396  0.89690311  0.34827156     0.84400
N526        N  0.19347572  0.89657110  0.37162580    -0.76300
C527        C  0.22007049  0.90043378  0.35937908     0.84500
N528        N  0.22732982  0.90529912  0.32357400    -0.78000
C529        C  0.51378430  0.70836516  0.30489140     0.82000
N530        N  0.51336596  0.68629058  0.32320809    -0.76300
C531        C  0.51583298  0.68836399  0.35983802     0.84400
N532        N  0.51859222  0.71244124  0.37810316    -0.76300
C533        C  0.51920825  0.73472088  0.36046614     0.84500
N534        N  0.51676765  0.73278652  0.32362122    -0.78000
C535        C  0.12187332  0.79635999  0.52245406     0.82000
N536        N  0.10705060  0.76653718  0.51811402    -0.76300
C537        C  0.12220283  0.75181200  0.51809875     0.84400
N538        N  0.15218716  0.76690716  0.52151926    -0.76300
C539        C  0.16699188  0.79669172  0.52587826     0.84500
N540        N  0.15190296  0.81147694  0.52579085    -0.78000
O541        O  0.01181397  0.87491394  0.41530651    -0.83600
O542        O  0.07023263  0.91929029  0.41364665    -0.80600
C543        C  0.07111586  0.93374554  0.44235502     0.99900
O544        O  0.07087755  0.92399845  0.47296328    -0.80700
O545        O  0.06094429  0.88402824  0.52548791    -0.83300
C546        C  0.03360712  0.87075660  0.53367739     1.04400
O547        O  0.01446776  0.85395581  0.51069828    -0.76100
O548        O  0.48876445  0.82876877  0.43951106    -0.76300
C549        C  0.48697514  0.84923995  0.42535862     1.04400
O550        O  0.02805587  0.83338856  0.38588511    -0.83600
O551        O  0.08744954  0.87619801  0.39304030    -0.80600
C552        C  0.11154549  0.89438533  0.40848364     0.99900
O553        O  0.11132567  0.90872772  0.43673773    -0.80700
O554        O  0.09591922  0.86533073  0.48450452    -0.83300
C555        C  0.07999734  0.84043653  0.49796645     1.04400
O556        O  0.05198379  0.82853192  0.50015823    -0.76100
O557        O  0.03049310  0.80993375  0.43170132    -0.76200
C558        C  0.02738363  0.81107750  0.39823876     1.04300
Cr559      Cr  0.04958647  0.87533052  0.40547222     1.93700
Cr560      Cr  0.08227403  0.89358642  0.47787992     1.93200
Cr561      Cr  0.02390543  0.83392943  0.46982815     1.39100
O562        O  0.05170102  0.86752395  0.45125644    -1.21300
O563        O  0.04830037  0.55296439  0.41733310    -0.83600
O564        O  0.00271155  0.56373651  0.40696600    -0.80600
C565        C  0.49500713  0.55612479  0.43097718     0.99900
O566        O  0.50400468  0.56980622  0.46093173    -0.80700
O567        O  0.03903939  0.60606095  0.51663808    -0.83300
C568        C  0.05286981  0.59364402  0.52709831     1.04400
O569        O  0.07004675  0.58973973  0.50574599    -0.76100
O570        O  0.09251775  0.58059003  0.44133322    -0.76300
C571        C  0.07156918  0.55565284  0.43047493     1.04400
O572        O  0.08929057  0.60656592  0.38144888    -0.83600
O573        O  0.04488036  0.61980074  0.37905848    -0.80600
C574        C  0.02720877  0.62806135  0.39077599     0.99900
O575        O  0.01425207  0.62005049  0.42129686    -0.80700
O576        O  0.05739441  0.65462840  0.46974213    -0.83300
C577        C  0.08173259  0.66554810  0.48593789     1.04400
O578        O  0.09399537  0.65054867  0.49096841    -0.76100
O579        O  0.11196287  0.64097553  0.42354704    -0.76200
C580        C  0.11051131  0.63167843  0.39116673     1.04300
Cr581      Cr  0.04691757  0.58703009  0.39961021     1.93700
Cr582      Cr  0.02911156  0.61191392  0.46649402     1.93200
Cr583      Cr  0.08956336  0.61468270  0.46367675     1.39100
O584        O  0.05514810  0.60453980  0.44343230    -1.21300
O585        O  0.34576721  0.90969120  0.40534325    -0.83600
O586        O  0.35672802  0.86516337  0.41493823    -0.80600
C587        C  0.35639398  0.84395656  0.42957955     0.99900
O588        O  0.33362427  0.82534253  0.44659690    -0.80700
O589        O  0.33546345  0.85731250  0.50829711    -0.83300
C590        C  0.33264301  0.87492691  0.52995289     1.04400
O591        O  0.31706053  0.88612923  0.52145333    -0.76100
O592        O  0.34575272  0.92091182  0.46345515    -0.76300
C593        C  0.35757100  0.92699809  0.43249021     1.04400
O594        O  0.28532189  0.86654969  0.38755153    -0.83600
O595        O  0.29648049  0.82158646  0.39192219    -0.80600
C596        C  0.27403215  0.80204683  0.40888546     0.99900
O597        O  0.27106771  0.80484867  0.44243373    -0.80700
O598        O  0.27189777  0.83127394  0.50761771    -0.83300
C599        C  0.25424683  0.84042403  0.50158222     1.04400
O600        O  0.26193997  0.86209561  0.48202205    -0.76100
O601        O  0.28942116  0.90067757  0.42745475    -0.76200
C602        C  0.27916547  0.88595794  0.39790586     1.04300
Cr603      Cr  0.32026784  0.86549325  0.40352962     1.93700
Cr604      Cr  0.30354709  0.83208088  0.47427091     1.93200
Cr605      Cr  0.30400775  0.89050190  0.47191133     1.39100
O606        O  0.30926128  0.86276275  0.44979146    -1.21300
C607        C  0.19941232  0.71053368  0.28897495     0.82000
N608        N  0.22196160  0.73638589  0.30307412    -0.76300
C609        C  0.22308299  0.74266443  0.33917704     0.84400
N610        N  0.20129673  0.72309443  0.36110598    -0.76300
C611        C  0.17874621  0.69727224  0.34761179     0.84500
N612        N  0.17790477  0.69082900  0.31138600    -0.78000
C613        C  0.37733851  0.56473418  0.96444696     0.82000
N614        N  0.39811329  0.58476108  0.98791102    -0.76300
C615        C  0.39292605  0.58294509  0.02434617     0.84400
N616        N  0.36689477  0.56055512  0.03727265    -0.76300
C617        C  0.34575347  0.54050722  0.01417137     0.84500
N618        N  0.35099505  0.54283726  0.97776876    -0.78000
C619        C  0.38000516  0.74613227  0.96170860     0.82000
N620        N  0.40313219  0.74654937  0.97823061    -0.76300
C621        C  0.40256479  0.74325680  0.01437790     0.84400
N622        N  0.37856895  0.73958119  0.03415418    -0.76300
C623        C  0.35533825  0.73933600  0.01813026     0.84500
N624        N  0.35603462  0.74265060  0.98169152    -0.78000
C625        C  0.29401560  0.63360030  0.18343680     0.82000
N626        N  0.32411684  0.64972280  0.18532336    -0.76300
C627        C  0.33973755  0.63665807  0.19401625     0.84400
N628        N  0.32534880  0.60736076  0.19994373    -0.76300
C629        C  0.29526613  0.59126150  0.19825885     0.84500
N630        N  0.27959184  0.60427617  0.18947701    -0.78000
O631        O  0.03424845  0.75433210  0.09248490    -0.83600
O632        O  0.02051906  0.69760513  0.07846949    -0.80600
C633        C  0.03064925  0.69067722  0.10469753     0.99900
O634        O  0.01811752  0.68575517  0.13539098    -0.80700
O635        O  0.48905696  0.69354824  0.19220420    -0.83300
C636        C  0.50427892  0.71987788  0.20487592     1.04400
O637        O  0.50903778  0.74120588  0.18597549    -0.76100
O638        O  0.01362592  0.77340338  0.12852533    -0.76300
C639        C  0.03532345  0.77612087  0.10929819     1.04400
O640        O  0.47400497  0.73989330  0.06828179    -0.83600
O641        O  0.46120022  0.68310549  0.05791239    -0.80600
C642        C  0.45397639  0.65727375  0.06558343     0.99900
O643        O  0.46386455  0.65257396  0.09392360    -0.80700
O644        O  0.43549157  0.66456456  0.14990526    -0.83300
C645        C  0.42759544  0.67890459  0.17096480     1.04400
O646        O  0.44557860  0.70544562  0.18019935    -0.76100
O647        O  0.44798029  0.73260854  0.11860129    -0.76200
C648        C  0.45162088  0.73795067  0.08548088     1.04300
Cr649      Cr  0.99682223  0.71842866  0.07904130     1.93700
Cr650      Cr  0.47764373  0.67708061  0.14080363     1.93200
Cr651      Cr  0.47899087  0.73610714  0.15061951     1.39100
O652        O  0.48458810  0.71074286  0.12278153    -1.21300
O653        O  0.22784369  0.90191468  0.09084608    -0.83600
O654        O  0.18304126  0.91195468  0.07525815    -0.80600
C655        C  0.16449684  0.90213721  0.10136166     0.99900
O656        O  0.17001348  0.91541152  0.13180321    -0.80700
O657        O  0.20255662  0.94805263  0.19057840    -0.83300
C658        C  0.21193017  0.93250973  0.20385477     1.04400
O659        O  0.23062077  0.92799082  0.18670793    -0.76100
O660        O  0.26426321  0.92403622  0.12985054    -0.76300
C661        C  0.24724376  0.90179838  0.11003224     1.04400
O662        O  0.27249397  0.96093174  0.06833025    -0.83600
O663        O  0.22769533  0.97170934  0.05656312    -0.80600
C664        C  0.20751400  0.97769244  0.06336247     0.99900
O665        O  0.19118486  0.96782541  0.09125512    -0.80700
O666        O  0.22925138  0.99926428  0.14688585    -0.83300
C667        C  0.25582318  0.50403301  0.17921433     1.04400
O668        O  0.25901794  0.99109426  0.17901229    -0.76100
O669        O  0.28842669  0.98625663  0.11984411    -0.76200
C670        C  0.29211580  0.98293390  0.08658935     1.04300
Cr671      Cr  0.22789662  0.93759235  0.07642992     1.93700
Cr672      Cr  0.20047389  0.95708083  0.13880975     1.93200
Cr673      Cr  0.25819448  0.95664674  0.15141111     1.39100
O674        O  0.22888394  0.95029491  0.12212036    -1.21300
O675        O  0.17348518  0.69389533  0.06648404    -0.83600
O676        O  0.21942515  0.75069876  0.07913298    -0.80600
C677        C  0.24225927  0.77172581  0.09384325     0.99900
O678        O  0.26249464  0.76776144  0.10548886    -0.80700
O679        O  0.23693296  0.73739452  0.16752799    -0.83300
C680        C  0.21977251  0.71666363  0.18767238     1.04400
O681        O  0.20709144  0.69006772  0.17588364    -0.76100
O682        O  0.16712173  0.68320321  0.12399170    -0.76300
C683        C  0.15803634  0.68790012  0.09529475     1.04400
O684        O  0.21608979  0.67815530  0.03802906    -0.83600
O685        O  0.26098607  0.73565730  0.04385793    -0.80600
C686        C  0.28225606  0.73298002  0.05491880     0.99900
O687        O  0.28258139  0.72652261  0.08724652    -0.80700
O688        O  0.26238930  0.70092206  0.15280472    -0.83300
C689        C  0.25129233  0.67365280  0.14578010     1.04400
O690        O  0.22777659  0.65936693  0.12784246    -0.76100
O691        O  0.18523391  0.64821699  0.07868405    -0.76200
C692        C  0.19906730  0.65241359  0.04870346     1.04300
Cr693      Cr  0.21797355  0.71400164  0.06027369     1.93700
Cr694      Cr  0.25848730  0.73122841  0.12634698     1.93200
Cr695      Cr  0.19873424  0.67284302  0.12488215     1.39100
O696        O  0.22496546  0.70599274  0.10388856    -1.21300
C697        C  0.18731466  0.55317366  0.96234084     0.82000
N698        N  0.18991904  0.53226766  0.97929073    -0.76300
C699        C  0.19348456  0.53401560  0.01563357     0.84400
N700        N  0.19396859  0.55682466  0.03531925    -0.76300
C701        C  0.19134533  0.57793892  0.01859451     0.84500
N702        N  0.18801938  0.57601983  0.98202801    -0.78000
C703        C  0.19562420  0.62709969  0.02582546    -0.14700
C704        C  0.19156601  0.60234340  0.04051238    -0.29800
H705        H  0.19949050  0.62998924  0.99685052     0.14400
H706        H  0.18995302  0.60058164  0.06978362     0.14900
C707        C  0.24995018  0.87576725  0.10865022    -0.16700
C708        C  0.24987447  0.85269236  0.10565240     0.07300
C709        C  0.24800476  0.82482916  0.10108309     0.09200
C710        C  0.24558143  0.80070791  0.09724832    -0.17600
C711        C  0.19648940  0.51078785  0.03282493    -0.14700
C712        C  0.20292354  0.99595554  0.03792057    -0.29800
H713        H  0.18232523  0.01073080  0.07634782     0.14400
H714        H  0.21257360  0.99848209  0.01088692     0.14900
C715        C  0.12958972  0.68633194  0.09523472    -0.16700
C716        C  0.10622808  0.68608452  0.09568227     0.07300
C717        C  0.07936079  0.68682204  0.09708808     0.09200
C718        C  0.05686224  0.68818346  0.09955075    -0.17600
C719        C  0.06155046  0.80449468  0.10564980    -0.16700
C720        C  0.08455132  0.82734993  0.10148979     0.07300
C721        C  0.11226967  0.85342962  0.09740699     0.09200
C722        C  0.13627843  0.87563843  0.09671004    -0.17600
C723        C  0.26531048  0.65870565  0.15954470    -0.11500
C724        C  0.27787986  0.64693586  0.17121224    -0.13100
C725        C  0.28073188  0.55984802  0.19910038    -0.11500
C726        C  0.26920052  0.53367219  0.19340392    -0.13100
C727        C  0.39762037  0.66500253  0.18413153    -0.11500
C728        C  0.37145919  0.65263148  0.19116685    -0.13100
C729        C  0.32997553  0.73533942  0.04125045    -0.14700
C730        C  0.30700782  0.73772582  0.02988682    -0.29800
H731        H  0.33058168  0.73046059  0.06935950     0.14400
H732        H  0.30622279  0.74292999  0.00198953     0.14900
C733        C  0.42774693  0.74313148  0.03155868    -0.14700
C734        C  0.42890681  0.74164038  0.06755660    -0.29800
H735        H  0.44512601  0.74337434  0.01422217     0.14400
H736        H  0.41138007  0.74128215  0.08471707     0.14900
C737        C  0.32000703  0.00589043  0.07001160    -0.14700
C738        C  0.31684100  0.51674341  0.02836424    -0.29800
H739        H  0.33703158  0.02142668  0.08863572     0.14400
H740        H  0.30683665  0.99542849  0.01545653     0.14900
C741        C  0.43453275  0.63300177  0.03990804    -0.14700
C742        C  0.41484314  0.60550513  0.05009491    -0.29800
H743        H  0.43447472  0.63880970  0.01207508     0.14400
H744        H  0.41305251  0.60024377  0.07848938     0.14900
C745        C  0.19901566  0.70323902  0.24978317    -0.14700
C746        C  0.21651685  0.72382062  0.22600966    -0.29800
H747        H  0.18470122  0.68048014  0.24050989     0.14400
H748        H  0.23016164  0.74669068  0.23529906     0.14900
C749        C  0.25076168  0.77502234  0.39073760    -0.14700
C750        C  0.24814299  0.77024074  0.35468602    -0.29800
H751        H  0.23424195  0.75856533  0.40846062     0.14400
H752        H  0.26440276  0.78653329  0.33661037     0.14900
C753        C  0.46653025  0.52953694  0.42886527    -0.16700
C754        C  0.44262311  0.50716443  0.42726220     0.07300
C755        C  0.40894697  0.97626577  0.42639773     0.09200
C756        C  0.38508332  0.95404065  0.42816296    -0.17600
C757        C  0.13353368  0.64997734  0.36426836    -0.14700
C758        C  0.15571776  0.67725908  0.37322284    -0.29800
H759        H  0.13178446  0.64122418  0.33667306     0.14400
H760        H  0.15723928  0.68565097  0.40098857     0.14900
C761        C  0.38238304  0.84117325  0.42670408    -0.16700
C762        C  0.40568359  0.84150880  0.42451074     0.07300
C763        C  0.43393325  0.84393689  0.42282657     0.09200
C764        C  0.45830895  0.84659489  0.42282959    -0.17600
C765        C  0.07298119  0.96180057  0.43949684    -0.16700
C766        C  0.07372315  0.98473722  0.43481590     0.07300
C767        C  0.07510951  0.50763224  0.43518416     0.09200
C768        C  0.07436759  0.53002481  0.43276239    -0.17600
C769        C  0.09547229  0.69539172  0.49950371    -0.11500
C770        C  0.10721334  0.72086640  0.50951169    -0.13100
C771        C  0.19873571  0.81265176  0.52391396    -0.11500
C772        C  0.22481312  0.82563816  0.51644140    -0.13100
C773        C  0.09399345  0.82515273  0.51066604    -0.11200
C774        C  0.10642650  0.81207486  0.51815364    -0.13100
C775        C  0.01468191  0.66661199  0.38373374    -0.14700
C776        C  0.02198483  0.64745011  0.36846412    -0.29800
H777        H  0.51220707  0.66533782  0.40948640     0.14400
H778        H  0.02743240  0.64832122  0.33973813     0.14900
C779        C  0.02270803  0.78614847  0.37316453    -0.14700
C780        C  0.02241395  0.76238521  0.38560071    -0.29800
H781        H  0.01980029  0.78746542  0.34447423     0.14400
H782        H  0.02533693  0.76159424  0.41444073     0.14900
C783        C  0.51403983  0.72585959  0.24318926    -0.14700
C784        C  0.50883498  0.70406703  0.26524274    -0.29800
H785        H  0.02558917  0.74912695  0.25557367     0.14400
H786        H  0.49978478  0.68172813  0.25398625     0.14900
C787        C  0.26094312  0.89177271  0.37344877    -0.14700
C788        C  0.24046038  0.89870150  0.38503619    -0.29800
H789        H  0.26242995  0.88720185  0.34470343     0.14400
H790        H  0.23701198  0.90076713  0.41393380     0.14900
C791        C  0.14465468  0.89186964  0.36083485    -0.14700
C792        C  0.14046870  0.89923157  0.39474905    -0.29800
H793        H  0.12663685  0.88326122  0.34146973     0.14400
H794        H  0.15917060  0.90977416  0.41319828     0.14900
C795        C  0.21698628  0.91365474  0.26196069    -0.14700
C796        C  0.20161023  0.92112592  0.24043020    -0.29800
H797        H  0.23748601  0.91496359  0.25209150     0.14400
H798        H  0.18202160  0.92135637  0.25103305     0.14900
C799        C  0.34319069  0.89695681  0.59258939    -0.14700
C800        C  0.34538605  0.87951353  0.56645569    -0.29800
H801        H  0.33425524  0.91097260  0.58638791     0.14400
H802        H  0.35526337  0.86632209  0.57273422     0.14900
C803        C  0.17969503  0.56884326  0.90323245    -0.14700
C804        C  0.18047605  0.54866850  0.92349275    -0.29800
H805        H  0.18723542  0.59104878  0.91408976     0.14400
H806        H  0.17399923  0.52694699  0.91164073     0.14900
C807        C  0.28927576  0.70670034  0.75422165    -0.16700
C808        C  0.26551066  0.68392666  0.75289578     0.07300
C809        C  0.23796371  0.65687405  0.75372660     0.09200
C810        C  0.21491920  0.63355768  0.75628026    -0.17600
C811        C  0.36093921  0.74877359  0.90172289    -0.14700
C812        C  0.38294735  0.75175142  0.92277184    -0.29800
H813        H  0.33844048  0.73987646  0.91238139     0.14400
H814        H  0.40504479  0.75971572  0.91112351     0.14900
C815        C  0.35659746  0.84036604  0.72630630    -0.14700
C816        C  0.35896413  0.84594330  0.69083821    -0.29800
H817        H  0.35373706  0.85510267  0.74546542     0.14400
H818        H  0.36126321  0.83122919  0.67109537     0.14900
C819        C  0.40347653  0.63450111  0.76398022    -0.16700
C820        C  0.40354424  0.65752870  0.76242431     0.07300
C821        C  0.40273252  0.68414449  0.76136217     0.09200
C822        C  0.40164822  0.70667618  0.76219370    -0.17600
C823        C  0.21436478  0.52244242  0.76434062    -0.16700
C824        C  0.23721661  0.52173866  0.76253371     0.07300
C825        C  0.26432718  0.52153510  0.76220558     0.09200
C826        C  0.28785876  0.52219106  0.76248940    -0.17600
C827        C  0.36397222  0.55002024  0.89955299    -0.14700
C828        C  0.38454890  0.56606098  0.92496248    -0.29800
H829        H  0.34080219  0.53669151  0.90778979     0.14400
H830        H  0.40765154  0.57991280  0.91677948     0.14900
C831        C  0.36579871  0.96670710  0.70590291    -0.14700
C832        C  0.36516940  0.94206755  0.71600962    -0.29800
H833        H  0.36284850  0.96924005  0.67759269     0.14400
H834        H  0.36850917  0.93970173  0.74424744     0.14900
C835        C  0.43778352  0.89229629  0.85663254    -0.11500
C836        C  0.42508464  0.86632682  0.84864908    -0.13100
C837        C  0.03474885  0.98260212  0.84931616    -0.11500
C838        C  0.06119197  0.99468368  0.84336272    -0.13100
C839        C  0.44539928  0.98763904  0.85272824    -0.11500
C840        C  0.43468237  0.00224752  0.84473683    -0.13100
C841        C  0.47423578  0.84837959  0.69193727    -0.14700
C842        C  0.47139660  0.83606367  0.72387229    -0.29800
H843        H  0.45505259  0.84013578  0.67445580     0.14400
H844        H  0.49106818  0.84300411  0.74006844     0.14900
C845        C  0.07768647  0.93492882  0.71868670    -0.14700
C846        C  0.09888627  0.96119013  0.70620773    -0.29800
H847        H  0.07581290  0.93135717  0.74760777     0.14400
H848        H  0.09914484  0.96541636  0.67765378     0.14900
C849        C  0.04434151  0.89211134  0.59596313    -0.14700
C850        C  0.02439627  0.87332705  0.57136692    -0.29800
H851        H  0.06691659  0.90762521  0.58725812     0.14400
H852        H  0.00156595  0.85822985  0.57957167     0.14900
C853        C  0.08004320  0.57235726  0.69351533    -0.14700
C854        C  0.08204484  0.56992852  0.72924868    -0.29800
H855        H  0.09625526  0.57166215  0.67487023     0.14400
H856        H  0.06577804  0.57086224  0.74758790     0.14900
C857        C  0.48856960  0.57599026  0.70901685    -0.14700
C858        C  0.46120317  0.56793105  0.69730039    -0.29800
H859        H  0.99221628  0.57916067  0.74128479     0.14400
H860        H  0.45606245  0.56187047  0.66882159     0.14900
C861        C  0.05066367  0.58516719  0.56523193    -0.14700
C862        C  0.03268316  0.58817744  0.58989652    -0.29800
H863        H  0.06516378  0.57725506  0.57350770     0.14400
H864        H  0.01764669  0.59539356  0.58147455     0.14900
C865        C  0.54796947  0.08183506  0.62940648     0.82000
N866        N  0.56973571  0.08356408  0.65007428    -0.76300
C867        C  0.56590322  0.07966520  0.68618429     0.84400
N868        N  0.53971297  0.07461085  0.70227798    -0.76300
C869        C  0.51755082  0.07307442  0.68151879     0.84500
N870        N  0.52176687  0.07627977  0.64510129    -0.78000
C871        C  0.53159851  0.39900088  0.62414361     0.82000
N872        N  0.55159850  0.42311318  0.64346911    -0.76300
C873        C  0.54855427  0.42539389  0.67981864     0.84400
N874        N  0.52492313  0.40300518  0.69727949    -0.76300
C875        C  0.50431133  0.37882620  0.67770231     0.84500
N876        N  0.50775617  0.37711867  0.64125030    -0.78000
C877        C  0.95349400  0.46898132  0.85648558     0.82000
N878        N  0.98351486  0.48534675  0.85920265    -0.76300
C879        C  0.50121694  0.47557916  0.86748365     0.84400
N880        N  0.98544593  0.44258396  0.86943252    -0.76300
C881        C  0.95538225  0.42608697  0.86688354     0.84500
N882        N  0.93940557  0.43925717  0.85990972    -0.78000
O883        O  0.84507220  0.04744756  0.73971909    -0.83600
O884        O  0.90296469  0.09286887  0.73291128    -0.80600
C885        C  0.90833794  0.10836490  0.76198222     0.99900
O886        O  0.91093179  0.09879551  0.79144330    -0.80700
O887        O  0.89965414  0.05800499  0.84357541    -0.83300
C888        C  0.87224510  0.04437816  0.85264563     1.04400
O889        O  0.85268134  0.02774557  0.83001318    -0.76100
O890        O  0.82586615  0.00421811  0.76416684    -0.76300
C891        C  0.82289938  0.02457498  0.75156204     1.04400
O892        O  0.86108988  0.00599932  0.70650613    -0.83600
O893        O  0.91927695  0.05035386  0.70694047    -0.80600
C894        C  0.94482018  0.06718369  0.71964475     0.99900
O895        O  0.94803879  0.07996226  0.75063422    -0.80700
O896        O  0.93321461  0.03777427  0.79959442    -0.83300
C897        C  0.91785712  0.01393132  0.81535324     1.04400
O898        O  0.88399695  0.50109339  0.82909519    -0.76100
O899        O  0.85846025  0.47973921  0.76314921    -0.76200
C900        C  0.85404713  0.47984003  0.72985684     1.04300
Cr901      Cr  0.88250399  0.04860909  0.72515297     1.93700
Cr902      Cr  0.92031736  0.06674475  0.79435607     1.93200
Cr903      Cr  0.86124204  0.00735635  0.78931391     1.39100
O904        O  0.88805813  0.04105179  0.76974959    -1.21300
O905        O  0.89148876  0.23848623  0.75317286    -0.83600
O906        O  0.84313168  0.24589768  0.75062954    -0.80600
C907        C  0.82725119  0.23293382  0.77810879     0.99900
O908        O  0.83548125  0.24370706  0.80961314    -0.80700
O909        O  0.87333861  0.27474466  0.86599251    -0.83300
C910        C  0.88621608  0.26044607  0.87230643     1.04400
O911        O  0.90363105  0.25883456  0.84933914    -0.76100
O912        O  0.93226912  0.26163796  0.78534937    -0.76300
C913        C  0.91336421  0.23897977  0.76747509     1.04400
O914        O  0.93156256  0.29980671  0.73331339    -0.83600
O915        O  0.88395880  0.30838480  0.73656537    -0.80600
C916        C  0.86409903  0.31276776  0.75065929     0.99900
O917        O  0.84933143  0.29833159  0.77771351    -0.80700
O918        O  0.89120337  0.32823868  0.82934227    -0.83300
C919        C  0.91506963  0.33808848  0.84636995     1.04400
O920        O  0.92656081  0.32215537  0.85063659    -0.76100
O921        O  0.95062224  0.32387871  0.78464085    -0.76200
C922        C  0.95172999  0.32208675  0.75078247     1.04300
Cr923      Cr  0.88789063  0.27379632  0.74676776     1.93700
Cr924      Cr  0.86440248  0.28590705  0.81881141     1.93200
Cr925      Cr  0.92569365  0.29090676  0.81568194     1.39100
O926        O  0.89264510  0.28336660  0.79367370    -1.21300
O927        O  0.69464840  0.08489965  0.75641190    -0.83600
O928        O  0.68183795  0.02915293  0.73656463    -0.80600
C929        C  0.69262264  0.02119181  0.76100039     0.99900
O930        O  0.68031329  0.01417530  0.79166434    -0.80700
O931        O  0.65146623  0.01789768  0.85316141    -0.83300
C932        C  0.66839823  0.04351660  0.86657975     1.04400
O933        O  0.67239340  0.06598508  0.85073642    -0.76100
O934        O  0.67412351  0.10128921  0.79663151    -0.76300
C935        C  0.69600288  0.10544931  0.77657699     1.04400
O936        O  0.63463192  0.07090875  0.73741190    -0.83600
O937        O  0.62118478  0.01418103  0.72160602    -0.80600
C938        C  0.60607237  0.48383423  0.74613387     0.99900
O939        O  0.62068015  0.48399828  0.77289692    -0.80700
O940        O  0.59585199  0.50184166  0.82681032    -0.83300
C941        C  0.58981616  0.00564649  0.83579904     1.04400
O942        O  0.60845734  0.03158291  0.84671312    -0.76100
O943        O  0.61020424  0.06248179  0.78910895    -0.76200
C944        C  0.61280748  0.06880054  0.75633088     1.04300
Cr945      Cr  0.65721454  0.04905353  0.74157450     1.93700
Cr946      Cr  0.63891069  0.00424551  0.80172124     1.93200
Cr947      Cr  0.64180555  0.06352354  0.81820835     1.39100
O948        O  0.64610156  0.03901258  0.78707244    -1.21300
C949        C  0.85329618  0.38704247  0.63663046     0.82000
N950        N  0.85919654  0.36784821  0.65251038    -0.76300
C951        C  0.86303360  0.36915814  0.68867889     0.84400
N952        N  0.86135715  0.39037227  0.70938799    -0.76300
C953        C  0.85602870  0.41029805  0.69384202     0.84500
N954        N  0.85176524  0.40845304  0.65729549    -0.78000
C955        C  0.70702680  0.40152354  0.30083196     0.82000
N956        N  0.67968212  0.39621709  0.31201912    -0.76300
C957        C  0.67060259  0.38952600  0.34672142     0.84400
N958        N  0.68886092  0.38771632  0.37056292    -0.76300
C959        C  0.71596183  0.39222681  0.35970906     0.84500
N960        N  0.72514115  0.39935223  0.32473708    -0.78000
C961        C  0.02149844  0.22049544  0.29331635     0.82000
N962        N  0.02498937  0.19787094  0.30362469    -0.76300
C963        C  0.02854293  0.19495510  0.33925065     0.84400
N964        N  0.02904875  0.21503314  0.36435363    -0.76300
C965        C  0.02598416  0.23782056  0.35411684     0.84500
N966        N  0.02199156  0.24023079  0.31863431    -0.78000
C967        C  0.61770508  0.29387990  0.52283620     0.82000
N968        N  0.60342623  0.26404310  0.51955936    -0.76300
C969        C  0.61914792  0.24993677  0.51976889     0.84400
N970        N  0.64919855  0.26564967  0.52238888    -0.76300
C971        C  0.66352491  0.29549797  0.52564144     0.84500
N972        N  0.64781965  0.30967867  0.52534324    -0.78000
O973        O  0.51009262  0.37300668  0.41059461    -0.83600
O974        O  0.56921822  0.41697104  0.41003220    -0.80600
C975        C  0.57157505  0.43170519  0.43898307     0.99900
O976        O  0.57004062  0.42133235  0.46942499    -0.80700
O977        O  0.55658363  0.38069900  0.52104756    -0.83300
C978        C  0.52895269  0.36890556  0.52742473     1.04400
O979        O  0.51027243  0.35184708  0.50419837    -0.76100
O980        O  0.98884156  0.32569455  0.43991927    -0.76300
C981        C  0.98716805  0.34720700  0.42864247     1.04400
O982        O  0.52611153  0.33130935  0.38216903    -0.83600
O983        O  0.58529419  0.37331511  0.38947756    -0.80600
C984        C  0.60939768  0.39060595  0.40542321     0.99900
O985        O  0.60948835  0.40458221  0.43420149    -0.80700
O986        O  0.59179975  0.36084499  0.48166573    -0.83300
C987        C  0.57524378  0.33662887  0.49617199     1.04400
O988        O  0.54738260  0.32583650  0.49820011    -0.76100
O989        O  0.52926779  0.30840701  0.42824846    -0.76200
C990        C  0.52634685  0.30954054  0.39473435     1.04300
Cr991      Cr  0.54780808  0.37312850  0.40150990     1.93700
Cr992      Cr  0.57959506  0.39000699  0.47457366     1.93200
Cr993      Cr  0.52085910  0.33148753  0.46520709     1.39100
O994        O  0.54922081  0.36494937  0.44726884    -1.21300
O995        O  0.57143073  0.06702552  0.40893047    -0.83600
O996        O  0.51252037  0.05048824  0.41625504    -0.80600
C997        C  0.99062381  0.06122155  0.43697976     0.99900
O998        O  0.00215841  0.07351897  0.46685827    -0.80700
O999        O  0.51976861  0.08318563  0.50655120    -0.83300
C1000       C  0.54049878  0.09005005  0.52838366     1.04400
O1001       O  0.56749607  0.10597003  0.51860232    -0.76100
O1002       O  0.57944239  0.07371122  0.46752799    -0.76300
C1003       C  0.57677698  0.05937555  0.43833675     1.04400
O1004       O  0.58333016  0.12235498  0.38229840    -0.83600
O1005       O  0.52404828  0.10398756  0.38320681    -0.80600
C1006       C  0.52415470  0.12696888  0.39515871     0.99900
O1007       O  0.52930643  0.13500685  0.42803469    -0.80700
O1008       O  0.55319099  0.14532031  0.49535415    -0.83300
C1009       C  0.58036960  0.16350368  0.48955642     1.04400
O1010       O  0.59674921  0.15577638  0.47261705    -0.76100
O1011       O  0.61355061  0.12577279  0.42478625    -0.76200
C1012       C  0.60926350  0.13279536  0.39412348     1.04300
Cr1013     Cr  0.54823942  0.08714685  0.40112931     1.93700
Cr1014     Cr  0.52544765  0.10881341  0.46625301     1.93200
Cr1015     Cr  0.58680931  0.11434122  0.46907989     1.39100
O1016       O  0.55348186  0.10330663  0.44554233    -1.21300
O1017       O  0.85936239  0.40643078  0.42399547    -0.83600
O1018       O  0.84687374  0.34888718  0.42130642    -0.80600
C1019       C  0.85942606  0.34892653  0.44996954     0.99900
O1020       O  0.84820314  0.34963036  0.48046664    -0.80700
O1021       O  0.81577693  0.36101225  0.53250374    -0.83300
C1022       C  0.82868679  0.38841002  0.54015958     1.04400
O1023       O  0.82995786  0.40618002  0.51743904    -0.76100
O1024       O  0.83512627  0.42716708  0.44920644    -0.76300
C1025       C  0.85862377  0.42898503  0.43565700     1.04400
O1026       O  0.80298135  0.38871530  0.39349137    -0.83600
O1027       O  0.78702241  0.33022326  0.40005389    -0.80600
C1028       C  0.78053982  0.30665958  0.41535945     0.99900
O1029       O  0.79300931  0.30758036  0.44463145    -0.80700
O1030       O  0.76260407  0.32341387  0.49303032    -0.83300
C1031       C  0.75207565  0.33892047  0.50574714     1.04400
O1032       O  0.76739913  0.36675645  0.50721246    -0.76100
O1033       O  0.77247320  0.38493301  0.43764003    -0.76200
C1034       C  0.77960288  0.38824409  0.40454813     1.04300
Cr1035     Cr  0.82300501  0.36840244  0.41325402     1.93700
Cr1036     Cr  0.80542581  0.33775763  0.48563430     1.93200
Cr1037     Cr  0.80192157  0.39409571  0.47633704     1.39100
O1038       O  0.81018063  0.36688941  0.45868990    -1.21300
C1039       C  0.69974058  0.21391154  0.30077754     0.82000
N1040       N  0.72121818  0.24015197  0.31518419    -0.76300
C1041       C  0.72419263  0.24475184  0.35163093     0.84400
N1042       N  0.70506690  0.22301225  0.37390289    -0.76300
C1043       C  0.68311243  0.19687330  0.35968305     0.84500
N1044       N  0.68082768  0.19240447  0.32310006    -0.78000
C1045       C  0.87308199  0.06179996  0.95576792     0.82000
N1046       N  0.89200098  0.08397896  0.97876116    -0.76300
C1047       C  0.88573298  0.08328393  0.01480818     0.84400
N1048       N  0.86067292  0.06001177  0.02786431    -0.76300
C1049       C  0.84154949  0.03747201  0.00552159     0.84500
N1050       N  0.84771382  0.03849116  0.96925079    -0.78000
C1051       C  0.86933572  0.24602774  0.97237149     0.82000
N1052       N  0.89107479  0.24121066  0.98350087    -0.76300
C1053       C  0.89470386  0.23940816  0.01929901     0.84400
N1054       N  0.87602330  0.24186510  0.04406249    -0.76300
C1055       C  0.85399929  0.24632534  0.03288239     0.84500
N1056       N  0.85102989  0.24862390  0.99708183    -0.78000
C1057       C  0.79641485  0.14327525  0.18767185     0.82000
N1058       N  0.82658573  0.15748339  0.18743533    -0.76300
C1059       C  0.84075231  0.14195628  0.19015305     0.84400
N1060       N  0.82476391  0.11217107  0.19215250    -0.76300
C1061       C  0.79461011  0.09797060  0.19243896     0.84500
N1062       N  0.78044009  0.11348037  0.18969967    -0.78000
O1063       O  0.53383208  0.25641301  0.09534050    -0.83600
O1064       O  0.51988076  0.19941283  0.08071050    -0.80600
C1065       C  0.52972644  0.19224408  0.10696473     0.99900
O1066       O  0.51717153  0.18744779  0.13761650    -0.80700
O1067       O  0.00473581  0.18968735  0.16667107    -0.83300
C1068       C  0.00404845  0.20631908  0.19181145     1.04400
O1069       O  0.99214446  0.22178982  0.18711210    -0.76100
O1070       O  0.51242017  0.27492513  0.13100278    -0.76300
C1071       C  0.53457145  0.27798520  0.11246651     1.04400
O1072       O  0.96102795  0.22093183  0.05716043    -0.83600
O1073       O  0.97426705  0.17658775  0.04522285    -0.80600
C1074       C  0.95063738  0.15465419  0.05647245     0.99900
O1075       O  0.94440353  0.15258076  0.08979543    -0.80700
O1076       O  0.94218555  0.16854824  0.16093414    -0.83300
C1077       C  0.92784658  0.18209569  0.16208955     1.04400
O1078       O  0.93884213  0.20759086  0.15023779    -0.76100
O1079       O  0.96939182  0.25166594  0.10356471    -0.76200
C1080       C  0.95543822  0.23878841  0.07476445     1.04300
Cr1081     Cr  0.49643703  0.22042105  0.08111851     1.93700
Cr1082     Cr  0.97525518  0.17310644  0.12733660     1.93200
Cr1083     Cr  0.98167199  0.23431789  0.14207471     1.39100
O1084       O  0.98457904  0.20838433  0.11235736    -1.21300
O1085       O  0.72299073  0.41032034  0.09102135    -0.83600
O1086       O  0.67715797  0.42083074  0.08410891    -0.80600
C1087       C  0.66065503  0.40858014  0.11134550     0.99900
O1088       O  0.66785803  0.42016372  0.14266283    -0.80700
O1089       O  0.70342845  0.45179532  0.19987469    -0.83300
C1090       C  0.71362612  0.43586310  0.20917815     1.04400
O1091       O  0.73252751  0.43338066  0.18956326    -0.76100
O1092       O  0.76171230  0.43149778  0.12706353    -0.76300
C1093       C  0.74321078  0.40958188  0.10789794     1.04400
O1094       O  0.76590473  0.46967769  0.06941442    -0.83600
O1095       O  0.72087019  0.48218973  0.06882068    -0.80600
C1096       C  0.70117657  0.48770150  0.08070467     0.99900
O1097       O  0.68501129  0.47404264  0.10726599    -0.80700
O1098       O  0.72577924  0.50425905  0.16024729    -0.83300
C1099       C  0.74755794  0.01067516  0.16823449     1.04400
O1100       O  0.75927524  0.49678989  0.18479738    -0.76100
O1101       O  0.78496516  0.49407452  0.12060435    -0.76200
C1102       C  0.78688168  0.49105889  0.08682933     1.04300
Cr1103     Cr  0.72200875  0.44658119  0.08187743     1.93700
Cr1104     Cr  0.69767325  0.46210297  0.15078249     1.93200
Cr1105     Cr  0.75715007  0.46335213  0.15345910     1.39100
O1106       O  0.72569468  0.45717207  0.12868737    -1.21300
O1107       O  0.67528452  0.20046348  0.07412984    -0.83600
O1108       O  0.71781298  0.25822438  0.08949474    -0.80600
C1109       C  0.73946367  0.28005719  0.10489564     0.99900
O1110       O  0.75962843  0.27741734  0.11946044    -0.80700
O1111       O  0.73213458  0.24519482  0.17968348    -0.83300
C1112       C  0.71581317  0.22363501  0.19907877     1.04400
O1113       O  0.70500984  0.19735944  0.18646776    -0.76100
O1114       O  0.66661913  0.18888089  0.13133688    -0.76300
C1115       C  0.65836197  0.19314426  0.10171467     1.04400
O1116       O  0.72196662  0.18929586  0.04998925    -0.83600
O1117       O  0.76362213  0.24767392  0.05927853    -0.80600
C1118       C  0.78496936  0.24600987  0.07210338     0.99900
O1119       O  0.78439112  0.23954777  0.10455339    -0.80700
O1120       O  0.76188262  0.21205115  0.16814303    -0.83300
C1121       C  0.75314071  0.18536821  0.15953822     1.04400
O1122       O  0.73064863  0.17037347  0.14009493    -0.76100
O1123       O  0.68985313  0.15722282  0.08790847    -0.76200
C1124       C  0.70518816  0.16301288  0.05890583     1.04300
Cr1125     Cr  0.72001811  0.22329537  0.07163951     1.93700
Cr1126     Cr  0.75705314  0.24161361  0.14093558     1.93200
Cr1127     Cr  0.69981544  0.18110392  0.13497962     1.39100
O1128       O  0.72550359  0.21532300  0.11590433    -1.21300
C1129       C  0.69823534  0.07152506  0.96204512     0.82000
N1130       N  0.70221454  0.05012085  0.97540072    -0.76300
C1131       C  0.70501029  0.04890327  0.01154807     0.84400
N1132       N  0.70382685  0.06934317  0.03457300    -0.76300
C1133       C  0.70056462  0.09128652  0.02132521     0.84500
N1134       N  0.69772991  0.09217089  0.98503402    -0.78000
C1135       C  0.70338836  0.13920121  0.03433837    -0.14700
C1136       C  0.69960657  0.11370714  0.04634200    -0.29800
H1137       H  0.70805458  0.14396655  0.00579565     0.14400
H1138       H  0.69721163  0.10988161  0.07522133     0.14900
C1139       C  0.74495835  0.38306656  0.10566290    -0.16700
C1140       C  0.74481336  0.35997404  0.10493476     0.07300
C1141       C  0.74344827  0.33234815  0.10483702     0.09200
C1142       C  0.74175869  0.30854689  0.10493655    -0.17600
C1143       C  0.70872164  0.02499557  0.02522215    -0.14700
C1144       C  0.69672756  0.51021863  0.06422723    -0.29800
H1145       H  0.72021979  0.51225619  0.01606126     0.14400
H1146       H  0.68308649  0.51762388  0.07881296     0.14900
C1147       C  0.62924786  0.18966932  0.09927639    -0.16700
C1148       C  0.60536018  0.18817688  0.09854108     0.07300
C1149       C  0.57814709  0.18810294  0.09942603     0.09200
C1150       C  0.55564578  0.18937665  0.10185342    -0.17600
C1151       C  0.56083944  0.30661979  0.11015591    -0.16700
C1152       C  0.58328277  0.33035062  0.10801062     0.07300
C1153       C  0.60996081  0.35790872  0.10634661     0.09200
C1154       C  0.63302123  0.38124556  0.10689246    -0.17600
C1155       C  0.76875088  0.17171079  0.17242349    -0.11500
C1156       C  0.78151294  0.15920170  0.18101636    -0.13100
C1157       C  0.77793055  0.06643700  0.18965425    -0.11500
C1158       C  0.76397191  0.04040020  0.18231017    -0.13100
C1159       C  0.89821390  0.16808824  0.17660761    -0.11500
C1160       C  0.87233865  0.15638332  0.18519455    -0.13100
C1161       C  0.83225842  0.24684773  0.05907350    -0.14700
C1162       C  0.81018430  0.25100806  0.04832653    -0.29800
H1163       H  0.83322084  0.24180720  0.08699961     0.14400
H1164       H  0.80925577  0.25604014  0.02038586     0.14900
C1165       C  0.91872288  0.23447936  0.03054370    -0.14700
C1166       C  0.93224959  0.24466337  0.06261336    -0.29800
H1167       H  0.92619588  0.22319536  0.01138015     0.14400
H1168       H  0.92581125  0.25736482  0.08084188     0.14900
C1169       C  0.81455502  0.51319712  0.06872109    -0.14700
C1170       C  0.81423867  0.01220804  0.02098116    -0.29800
H1171       H  0.83171172  0.52959581  0.08653285     0.14400
H1172       H  0.80218647  0.49886490  0.01440026     0.14900
C1173       C  0.93094548  0.13124528  0.03015579    -0.14700
C1174       C  0.90569061  0.10715771  0.04044717    -0.29800
H1175       H  0.93748633  0.13388149  0.00174877     0.14400
H1176       H  0.89926006  0.10470418  0.06890479     0.14900
C1177       C  0.69775813  0.20792954  0.26124446    -0.14700
C1178       C  0.71219165  0.22959649  0.23770412    -0.29800
H1179       H  0.68535210  0.18507092  0.25145875     0.14400
H1180       H  0.72404700  0.25246096  0.24757239     0.14900
C1181       C  0.75818329  0.27751910  0.39988664    -0.14700
C1182       C  0.74750552  0.27378503  0.36628365    -0.29800
H1183       H  0.75021980  0.25854329  0.41681843     0.14400
H1184       H  0.75657586  0.29242098  0.34860728     0.14900
C1185       C  0.96169531  0.03535052  0.43589713    -0.16700
C1186       C  0.93776470  0.01323262  0.43301131     0.07300
C1187       C  0.90777400  0.48069721  0.43352299     0.09200
C1188       C  0.88496288  0.45731200  0.43360374    -0.17600
C1189       C  0.63429392  0.15289709  0.37086193    -0.14700
C1190       C  0.66070006  0.17426770  0.38380195    -0.29800
H1191       H  0.62960165  0.15192203  0.34222771     0.14400
H1192       H  0.66478466  0.17669475  0.41275101     0.14900
C1193       C  0.88641860  0.34757068  0.44714291    -0.16700
C1194       C  0.90916063  0.34686939  0.44227909     0.07300
C1195       C  0.93594472  0.34642553  0.43559758     0.09200
C1196       C  0.95906934  0.34644307  0.43087151    -0.17600
C1197       C  0.57718838  0.46104257  0.43697968    -0.16700
C1198       C  0.58140250  0.48553753  0.43478284     0.07300
C1199       C  0.57979970  0.01102714  0.43837203     0.09200
C1200       C  0.57956358  0.03374840  0.43839006    -0.17600
C1201       C  0.59295940  0.19326874  0.50300318    -0.11500
C1202       C  0.60449640  0.21886106  0.51234945    -0.13100
C1203       C  0.69535501  0.31194257  0.52388576    -0.11500
C1204       C  0.72172000  0.32467872  0.51782492    -0.13100
C1205       C  0.58848302  0.32112020  0.51022975    -0.11200
C1206       C  0.60141215  0.30869277  0.51832021    -0.13100
C1207       C  0.51824522  0.16881345  0.38410254    -0.14700
C1208       C  0.51857517  0.14487778  0.37063232    -0.29800
H1209       H  0.04104716  0.16041787  0.33151029     0.14400
H1210       H  0.51637070  0.13946002  0.34175123     0.14900
C1211       C  0.52280222  0.28514494  0.37008501    -0.14700
C1212       C  0.52496328  0.26297352  0.38304374    -0.29800
H1213       H  0.51854311  0.28540767  0.34155848     0.14400
H1214       H  0.52928949  0.26321232  0.41168947     0.14900
C1215       C  0.01541426  0.20598678  0.22781947    -0.14700
C1216       C  0.01500881  0.22318833  0.25558460    -0.29800
H1217       H  0.52480982  0.24926872  0.25690641     0.14400
H1218       H  0.00838835  0.23932887  0.25087745     0.14900
C1219       C  0.76130204  0.39208211  0.37795231    -0.14700
C1220       C  0.73488252  0.38954374  0.38655208    -0.29800
H1221       H  0.76959968  0.39644698  0.35025062     0.14400
H1222       H  0.72643206  0.38472687  0.41415977     0.14900
C1223       C  0.64152757  0.38542349  0.35849880    -0.14700
C1224       C  0.63798101  0.39464513  0.39167882    -0.29800
H1225       H  0.62341300  0.37622535  0.33922967     0.14400
H1226       H  0.65693231  0.40572028  0.40971948     0.14900
C1227       C  0.71774443  0.41200975  0.26380258    -0.14700
C1228       C  0.70289502  0.42102315  0.24377022    -0.29800
H1229       H  0.73882916  0.41456246  0.25419393     0.14400
H1230       H  0.68267232  0.41982050  0.25459544     0.14900
C1231       C  0.84589412  0.38168469  0.59778081    -0.14700
C1232       C  0.84102953  0.39911381  0.57697836    -0.29800
H1233       H  0.84310579  0.36109826  0.58596245     0.14400
H1234       H  0.84488766  0.42042208  0.58741420     0.14900
C1235       C  0.68162765  0.04643127  0.90227130    -0.14700
C1236       C  0.69155788  0.07103051  0.92344277    -0.29800
H1237       H  0.68002618  0.02675197  0.91295982     0.14400
H1238       H  0.69147368  0.09012054  0.91347035     0.14900
C1239       C  0.79881035  0.20601029  0.77384946    -0.16700
C1240       C  0.77468480  0.18354423  0.77348350     0.07300
C1241       C  0.74649059  0.15708873  0.77488629     0.09200
C1242       C  0.72294020  0.13405263  0.77619122    -0.17600
C1243       C  0.88353220  0.24820936  0.90802562    -0.14700
C1244       C  0.86679871  0.25109938  0.93430477    -0.29800
H1245       H  0.89774091  0.23929869  0.91378916     0.14400
H1246       H  0.85230863  0.25963187  0.92826972     0.14900
C1247       C  0.85793684  0.33491711  0.73600726    -0.14700
C1248       C  0.86953781  0.34766669  0.70430718    -0.29800
H1249       H  0.84331605  0.34063518  0.75140075     0.14400
H1250       H  0.88249663  0.34047556  0.68777736     0.14900
C1251       C  0.91196314  0.13756653  0.76135180    -0.16700
C1252       C  0.91447016  0.16183176  0.76141255     0.07300
C1253       C  0.91633244  0.18987053  0.76227601     0.09200
C1254       C  0.91632585  0.21299790  0.76393110    -0.17600
C1255       C  0.71940347  0.02000040  0.75402493    -0.16700
C1256       C  0.74243259  0.01965380  0.75111526     0.07300
C1257       C  0.76992562  0.02012942  0.75000621     0.09200
C1258       C  0.79381970  0.02150410  0.75027475    -0.17600
C1259       C  0.86262603  0.04573835  0.89066903    -0.14700
C1260       C  0.88168344  0.06283696  0.91687690    -0.29800
H1261       H  0.83935376  0.03113309  0.89759057     0.14400
H1262       H  0.90474763  0.07809483  0.90972866     0.14900
C1263       C  0.85130225  0.45528926  0.70530656    -0.14700
C1264       C  0.85561264  0.43384550  0.71731847    -0.29800
H1265       H  0.84713102  0.45565077  0.67677221     0.14400
H1266       H  0.86004720  0.43393741  0.74588000     0.14900
C1267       C  0.94117468  0.39444139  0.86587324    -0.11500
C1268       C  0.92955131  0.36816235  0.85993818    -0.13100
C1269       C  0.53300948  0.49226357  0.86685826    -0.11500
C1270       C  0.55920732  0.50514943  0.85994931    -0.13100
C1271       C  0.93732732  0.48290834  0.84606540    -0.11500
C1272       C  0.92528489  0.49565676  0.83562399    -0.13100
C1273       C  0.98065946  0.34870150  0.69673130    -0.14700
C1274       C  0.97733164  0.34684457  0.73270504    -0.29800
H1275       H  0.96453998  0.33074268  0.67942268     0.14400
H1276       H  0.99360744  0.36475469  0.74993971     0.14900
C1277       C  0.57016715  0.45342181  0.69839213    -0.14700
C1278       C  0.58246092  0.45516304  0.73044827    -0.29800
H1279       H  0.57847421  0.47331001  0.68309119     0.14400
H1280       H  0.57585610  0.43513557  0.74477950     0.14900
C1281       C  0.53777876  0.39607680  0.58553624    -0.14700
C1282       C  0.51882837  0.37380864  0.56341806    -0.29800
H1283       H  0.55972411  0.41210972  0.57549262     0.14400
H1284       H  0.49639118  0.35825131  0.57247339     0.14900
C1285       C  0.59035498  0.07951406  0.70556390    -0.14700
C1286       C  0.58945154  0.07312531  0.74041397    -0.29800
H1287       H  0.60961158  0.08322117  0.68923835     0.14400
H1288       H  0.57033857  0.06922297  0.75713355     0.14900
C1289       C  0.99657357  0.07663560  0.70973470    -0.14700
C1290       C  0.97066751  0.07209712  0.69664973    -0.29800
H1291       H  0.46890725  0.05455993  0.68004634     0.14400
H1292       H  0.96702221  0.06889327  0.66759372     0.14900
C1293       C  0.53291507  0.08122783  0.56632443    -0.14700
C1294       C  0.55409841  0.08738572  0.59051479    -0.29800
H1295       H  0.50969219  0.07058026  0.57479477     0.14400
H1296       H  0.57717440  0.09722611  0.58159820     0.14900
C1297       C  0.53451699  0.58107770  0.62656585     0.82000
N1298       N  0.55665838  0.57855032  0.64161917    -0.76300
C1299       C  0.55688099  0.57540644  0.67793559     0.84400
N1300       N  0.53477962  0.57486424  0.69918369    -0.76300
C1301       C  0.51238112  0.57703171  0.68463209     0.84500
N1302       N  0.51238842  0.58023776  0.64822790    -0.78000
C1303       C  0.53544596  0.89409628  0.62880969     0.82000
N1304       N  0.55612525  0.91474926  0.65177290    -0.76300
C1305       C  0.55059299  0.91408842  0.68807207     0.84400
N1306       N  0.52431925  0.89219670  0.70135495    -0.76300
C1307       C  0.50331364  0.87174883  0.67838602     0.84500
N1308       N  0.50895753  0.87292579  0.64225410    -0.78000
C1309       C  0.95923260  0.97095102  0.84746328     0.82000
N1310       N  0.98938954  0.98452806  0.84769457    -0.76300
C1311       C  0.50214953  0.96683931  0.86068417     0.84400
N1312       N  0.98616485  0.93888523  0.85586223    -0.76300
C1313       C  0.95598671  0.92537848  0.85572905     0.84500
N1314       N  0.94261114  0.94138685  0.85113545    -0.78000
O1315       O  0.83645763  0.54308111  0.74906171    -0.83600
O1316       O  0.89356604  0.58826585  0.74057855    -0.80600
C1317       C  0.89972809  0.60427400  0.76934342     0.99900
O1318       O  0.90439594  0.59581583  0.79854693    -0.80700
O1319       O  0.89621609  0.55654156  0.85155136    -0.83300
C1320       C  0.86940886  0.54447620  0.86270654     1.04400
O1321       O  0.84839448  0.52805155  0.84148373    -0.76100
O1322       O  0.81784813  0.50168976  0.77767895    -0.76300
C1323       C  0.81465613  0.52121765  0.76309279     1.04400
O1324       O  0.85227014  0.50093476  0.71721359    -0.83600
O1325       O  0.90993361  0.54568607  0.71405543    -0.80600
C1326       C  0.93580013  0.56357655  0.72492807     0.99900
O1327       O  0.93987610  0.57666000  0.75575014    -0.80700
O1328       O  0.92642036  0.53412999  0.80514804    -0.83300
C1329       C  0.91129118  0.51092479  0.82246173     1.04400
O1330       O  0.89006284  0.00269781  0.81923004    -0.76100
O1331       O  0.86786960  0.98385758  0.75080196    -0.76200
C1332       C  0.86283912  0.98451202  0.71784333     1.04300
Cr1333     Cr  0.87357325  0.54398266  0.73392351     1.93700
Cr1334     Cr  0.91402211  0.56382722  0.80092717     1.93200
Cr1335     Cr  0.85416952  0.50530857  0.80087123     1.39100
O1336       O  0.88055462  0.53782038  0.77861470    -1.21300
O1337       O  0.88201744  0.73508315  0.74994693    -0.83600
O1338       O  0.83650357  0.74602666  0.74089337    -0.80600
C1339       C  0.81832449  0.73393745  0.76696837     0.99900
O1340       O  0.82413750  0.74509083  0.79873721    -0.80700
O1341       O  0.85771764  0.77663149  0.85862869    -0.83300
C1342       C  0.86782650  0.76120067  0.86987892     1.04400
O1343       O  0.88496066  0.75609124  0.85009267    -0.76100
O1344       O  0.91712886  0.75365588  0.79104944    -0.76300
C1345       C  0.90031866  0.73293475  0.76926954     1.04400
O1346       O  0.92591719  0.79569364  0.73226360    -0.83600
O1347       O  0.88099016  0.80800930  0.72785898    -0.80600
C1348       C  0.86084322  0.81332676  0.73832787     0.99900
O1349       O  0.84354006  0.79905771  0.76370934    -0.80700
O1350       O  0.88335782  0.82895238  0.81841851    -0.83300
C1351       C  0.90587902  0.83729459  0.83787806     1.04400
O1352       O  0.91430948  0.81958144  0.84620416    -0.76100
O1353       O  0.94308956  0.81674477  0.78561635    -0.76200
C1354       C  0.94637277  0.81568872  0.75188616     1.04300
Cr1355     Cr  0.88146162  0.77191391  0.74134317     1.93700
Cr1356     Cr  0.85438811  0.78685281  0.80831111     1.93200
Cr1357     Cr  0.91241576  0.78593164  0.81586242     1.39100
O1358       O  0.88283894  0.78131732  0.78840425    -1.21300
O1359       O  0.68687608  0.58387687  0.74854130    -0.83600
O1360       O  0.67409384  0.52638389  0.74435563    -0.80600
C1361       C  0.68774595  0.52439103  0.77091894     0.99900
O1362       O  0.67860926  0.52419636  0.80289339    -0.80700
O1363       O  0.65232505  0.53669012  0.86114276    -0.83300
C1364       C  0.66841718  0.56406396  0.86832887     1.04400
O1365       O  0.66991610  0.58264039  0.84682073    -0.76100
O1366       O  0.66751954  0.60554950  0.78252475    -0.76300
C1367       C  0.68866559  0.60681385  0.76329031     1.04400
O1368       O  0.62609029  0.56577308  0.73012801    -0.83600
O1369       O  0.61181716  0.50786176  0.73279810    -0.80600
C1370       C  0.61363440  0.98790567  0.72749230     0.99900
O1371       O  0.62434618  0.98203149  0.75396382    -0.80700
O1372       O  0.59702843  0.99192512  0.81276292    -0.83300
C1373       C  0.58848382  0.51816221  0.84460670     1.04400
O1374       O  0.60604426  0.54570360  0.84806173    -0.76100
O1375       O  0.60390316  0.56501960  0.78182769    -0.76200
C1376       C  0.60537351  0.56677207  0.74794190     1.04300
Cr1377     Cr  0.64912943  0.54584661  0.74254986     1.93700
Cr1378     Cr  0.63731948  0.51410791  0.81405978     1.93200
Cr1379     Cr  0.63727299  0.57255450  0.81283349     1.39100
O1380       O  0.64145501  0.54435489  0.78983416    -1.21300
C1381       C  0.85373916  0.88848528  0.62265427     0.82000
N1382       N  0.85880206  0.86854824  0.63812919    -0.76300
C1383       C  0.86366654  0.87011408  0.67406453     0.84400
N1384       N  0.86370037  0.89214346  0.69488266    -0.76300
C1385       C  0.85929995  0.91278527  0.67977990     0.84500
N1386       N  0.85408378  0.91083126  0.64346196    -0.78000
C1387       C  0.70309566  0.90040613  0.29063492     0.82000
N1388       N  0.67628910  0.89580711  0.30332639    -0.76300
C1389       C  0.66865692  0.89018236  0.33868053     0.84400
N1390       N  0.68782877  0.88884317  0.36146309    -0.76300
C1391       C  0.71442684  0.89294864  0.34914829     0.84500
N1392       N  0.72211264  0.89887324  0.31364747    -0.78000
C1393       C  0.01201016  0.70940114  0.30806942     0.82000
N1394       N  0.01139744  0.68736147  0.32660517    -0.76300
C1395       C  0.01435010  0.68974605  0.36313048     0.84400
N1396       N  0.01763600  0.71415468  0.38118705    -0.76300
C1397       C  0.01837677  0.73646748  0.36335430     0.84500
N1398       N  0.01556855  0.73419383  0.32650060    -0.78000
C1399       C  0.62111535  0.79554220  0.52430314     0.82000
N1400       N  0.60733404  0.76572994  0.52189284    -0.76300
C1401       C  0.62365690  0.75223022  0.52046383     0.84400
N1402       N  0.65378705  0.76853557  0.52032019    -0.76300
C1403       C  0.66756870  0.79838819  0.52271941     0.84500
N1404       N  0.65123802  0.81190805  0.52409938    -0.78000
O1405       O  0.50977186  0.87160982  0.41345045    -0.83600
O1406       O  0.56846028  0.91590096  0.41071879    -0.80600
C1407       C  0.57147248  0.93060642  0.43992839     0.99900
O1408       O  0.57173006  0.92058443  0.47001022    -0.80700
O1409       O  0.56023974  0.88053192  0.52167411    -0.83300
C1410       C  0.53281531  0.86898854  0.52918964     1.04400
O1411       O  0.51347825  0.85211624  0.50640690    -0.76100
O1412       O  0.99021635  0.83273132  0.44324885    -0.76300
C1413       C  0.98893821  0.85335176  0.42851917     1.04400
O1414       O  0.52566406  0.82984939  0.38339405    -0.83600
O1415       O  0.58469320  0.87259749  0.38791629    -0.80600
C1416       C  0.60929337  0.89004928  0.40268355     0.99900
O1417       O  0.61027208  0.90371546  0.43213586    -0.80700
O1418       O  0.59390124  0.86015010  0.47992064    -0.83300
C1419       C  0.57767708  0.83640186  0.49558790     1.04400
O1420       O  0.54987099  0.82559156  0.49839750    -0.76100
O1421       O  0.52925891  0.80682335  0.42913744    -0.76200
C1422       C  0.52585155  0.80791210  0.39568605     1.04300
Cr1423     Cr  0.54738124  0.87194391  0.40233682     1.93700
Cr1424     Cr  0.58158311  0.88934422  0.47387918     1.93200
Cr1425     Cr  0.52242785  0.83084840  0.46678737     1.39100
O1426       O  0.55035258  0.86405113  0.44775502    -1.21300
O1427       O  0.55726063  0.55749034  0.41415160    -0.83600
O1428       O  0.51040821  0.56583888  0.40251717    -0.80600
C1429       C  0.98802878  0.55541798  0.43615041     0.99900
O1430       O  0.99817872  0.56977800  0.46544504    -0.80700
O1431       O  0.54267856  0.60553378  0.51446619    -0.83300
C1432       C  0.55739883  0.59412891  0.52520262     1.04400
O1433       O  0.57592750  0.59191682  0.50429401    -0.76100
O1434       O  0.60076038  0.58587548  0.43959674    -0.76300
C1435       C  0.58064295  0.56090868  0.42774852     1.04400
O1436       O  0.59753874  0.61239852  0.38074002    -0.83600
O1437       O  0.55162777  0.62320045  0.37745053    -0.80600
C1438       C  0.53264173  0.62983009  0.38866932     0.99900
O1439       O  0.51943346  0.62115424  0.41897057    -0.80700
O1440       O  0.56063375  0.65541345  0.47017150    -0.83300
C1441       C  0.58473178  0.66663814  0.48706181     1.04400
O1442       O  0.59787431  0.65244669  0.49154352    -0.76100
O1443       O  0.61833361  0.64618134  0.42395912    -0.76200
C1444       C  0.61771433  0.63782389  0.39124025     1.04300
Cr1445     Cr  0.55474322  0.59093790  0.39724180     1.93700
Cr1446     Cr  0.53371539  0.61244663  0.46434572     1.93200
Cr1447     Cr  0.59564280  0.61823930  0.46300933     1.39100
O1448       O  0.56132513  0.60725037  0.44173553    -1.21300
O1449       O  0.86178668  0.91314730  0.41215435    -0.83600
O1450       O  0.84907456  0.85558183  0.40629592    -0.80600
C1451       C  0.86083570  0.85441953  0.43505418     0.99900
O1452       O  0.84908036  0.85420283  0.46539472    -0.80700
O1453       O  0.81656518  0.86455342  0.51783939    -0.83300
C1454       C  0.82993257  0.89184896  0.52640680     1.04400
O1455       O  0.83177852  0.91033143  0.50438405    -0.76100
O1456       O  0.83679963  0.93302979  0.43730065    -0.76300
C1457       C  0.86081109  0.93530791  0.42493725     1.04400
O1458       O  0.80555542  0.89655068  0.38106143    -0.83600
O1459       O  0.78959380  0.83809949  0.38413870    -0.80600
C1460       C  0.78234884  0.81400673  0.39850213     0.99900
O1461       O  0.79452717  0.81376857  0.42749857    -0.80700
O1462       O  0.76383742  0.82823004  0.47702837    -0.83300
C1463       C  0.75393949  0.84348738  0.49218387     1.04400
O1464       O  0.76935663  0.87129984  0.49437726    -0.76100
O1465       O  0.77423977  0.89036754  0.42524013    -0.76200
C1466       C  0.78137013  0.89431259  0.39219498     1.04300
Cr1467     Cr  0.82549537  0.87560631  0.39929271     1.93700
Cr1468     Cr  0.80655624  0.84251277  0.47001103     1.93200
Cr1469     Cr  0.80368161  0.89925368  0.46364771     1.39100
O1470       O  0.81199411  0.87255499  0.44459145    -1.21300
C1471       C  0.69951232  0.72044507  0.28672316     0.82000
N1472       N  0.72076272  0.74742617  0.29977484    -0.76300
C1473       C  0.72342531  0.75377961  0.33590640     0.84400
N1474       N  0.70424046  0.73320202  0.35915785    -0.76300
C1475       C  0.68261735  0.70629887  0.34666317     0.84500
N1476       N  0.68050052  0.69980392  0.31030245    -0.78000
C1477       C  0.87731949  0.56301223  0.96604493     0.82000
N1478       N  0.89833839  0.58391683  0.98869903    -0.76300
C1479       C  0.89395743  0.58252695  0.02530084     0.84400
N1480       N  0.86857717  0.55998053  0.03902742    -0.76300
C1481       C  0.84724993  0.53907974  0.01689898     0.84500
N1482       N  0.85172232  0.54068272  0.98035143    -0.78000
C1483       C  0.87982473  0.74551992  0.96542257     0.82000
N1484       N  0.90234455  0.74470656  0.98167599    -0.76300
C1485       C  0.90351435  0.74484463  0.01821467     0.84400
N1486       N  0.88165860  0.74555733  0.03871692    -0.76300
C1487       C  0.85892777  0.74640736  0.02277550     0.84500
N1488       N  0.85813632  0.74647601  0.98601845    -0.78000
C1489       C  0.79714422  0.64619542  0.18675862     0.82000
N1490       N  0.82721720  0.66011334  0.18893077    -0.76300
C1491       C  0.84066418  0.64460506  0.19632505     0.84400
N1492       N  0.82412853  0.61509518  0.20059275    -0.76300
C1493       C  0.79407550  0.60116855  0.19850940     0.84500
N1494       N  0.78058284  0.61664147  0.19107487    -0.78000
O1495       O  0.53319361  0.75548539  0.09108634    -0.83600
O1496       O  0.52119358  0.69911064  0.07597560    -0.80600
C1497       C  0.53168727  0.69228951  0.10185260     0.99900
O1498       O  0.51938006  0.68710534  0.13267760    -0.80700
O1499       O  0.98856926  0.69380488  0.19471731    -0.83300
C1500       C  0.00487322  0.72013813  0.20697779     1.04400
O1501       O  0.01105012  0.74150208  0.18740489    -0.76100
O1502       O  0.51070389  0.77271917  0.12697606    -0.76300
C1503       C  0.53292385  0.77666872  0.10790641     1.04400
O1504       O  0.97519963  0.74050429  0.07033631    -0.83600
O1505       O  0.96083447  0.68334898  0.06023183    -0.80600
C1506       C  0.95321380  0.65741128  0.06775360     0.99900
O1507       O  0.96258173  0.65244552  0.09639185    -0.80700
O1508       O  0.93507605  0.66636317  0.15227251    -0.83300
C1509       C  0.92825409  0.68154261  0.17342079     1.04400
O1510       O  0.94727424  0.70777791  0.18269274    -0.76100
O1511       O  0.95044956  0.73526927  0.12138217    -0.76200
C1512       C  0.95360593  0.73992209  0.08811657     1.04300
Cr1513     Cr  0.49652105  0.71880079  0.07702232     1.93700
Cr1514     Cr  0.97683027  0.67715322  0.14328993     1.93200
Cr1515     Cr  0.98114609  0.73751906  0.15269301     1.39100
O1516       O  0.98507264  0.71108896  0.12490617    -1.21300
O1517       O  0.71715659  0.90740151  0.07785732    -0.83600
O1518       O  0.67251340  0.92023141  0.07326875    -0.80600
C1519       C  0.65602856  0.90843686  0.10068909     0.99900
O1520       O  0.66357112  0.91999094  0.13197677    -0.80700
O1521       O  0.69990255  0.95018352  0.18912870    -0.83300
C1522       C  0.70865160  0.93298630  0.19806178     1.04400
O1523       O  0.72649593  0.92911409  0.17794031    -0.76100
O1524       O  0.75512435  0.92621226  0.11502533    -0.76300
C1525       C  0.73680898  0.90537231  0.09443213     1.04400
O1526       O  0.76116104  0.96676550  0.05765628    -0.83600
O1527       O  0.71783116  0.98153691  0.05839678    -0.80600
C1528       C  0.69904126  0.98804968  0.07105941     0.99900
O1529       O  0.68264927  0.97424723  0.09733471    -0.80700
O1530       O  0.72469622  0.00299085  0.14982638    -0.83300
C1531       C  0.74890251  0.51337913  0.17864613     1.04400
O1532       O  0.75641425  0.99278763  0.17399759    -0.76100
O1533       O  0.78128697  0.98924111  0.10944810    -0.76200
C1534       C  0.78265737  0.98719506  0.07542687     1.04300
Cr1535     Cr  0.71742448  0.94474437  0.07043805     1.93700
Cr1536     Cr  0.69481248  0.96128975  0.14023444     1.93200
Cr1537     Cr  0.75237301  0.95886002  0.14204335     1.39100
O1538       O  0.72159750  0.95469735  0.11751579    -1.21300
O1539       O  0.67647087  0.69874156  0.06117917    -0.83600
O1540       O  0.71960028  0.75671234  0.07125373    -0.80600
C1541       C  0.74071960  0.77914139  0.08648239     0.99900
O1542       O  0.76116343  0.77746543  0.10187557    -0.80700
O1543       O  0.73476977  0.74731103  0.16421354    -0.83300
C1544       C  0.71866368  0.72647212  0.18481635     1.04400
O1545       O  0.70837208  0.69989586  0.17385178    -0.76100
O1546       O  0.66924232  0.68955729  0.11920298    -0.76300
C1547       C  0.66038310  0.69292551  0.08949263     1.04400
O1548       O  0.72221276  0.68552627  0.03759883    -0.83600
O1549       O  0.76466465  0.74392097  0.04218747    -0.80600
C1550       C  0.78653248  0.74370832  0.05600126     0.99900
O1551       O  0.78662414  0.73977375  0.08934086    -0.80700
O1552       O  0.76503384  0.71449329  0.15452122    -0.83300
C1553       C  0.75607962  0.68745100  0.14811294     1.04400
O1554       O  0.73346057  0.67157545  0.12916081    -0.76100
O1555       O  0.69098956  0.65578211  0.07797753    -0.76200
C1556       C  0.70544318  0.65984310  0.04850228     1.04300
Cr1557     Cr  0.72122085  0.72080421  0.05661719     1.93700
Cr1558     Cr  0.75939576  0.74270621  0.12546115     1.93200
Cr1559     Cr  0.70238087  0.68185328  0.12325273     1.39100
O1560       O  0.72761436  0.71515501  0.10176579    -1.21300
C1561       C  0.69525208  0.56109543  0.96208269     0.82000
N1562       N  0.69991553  0.54138985  0.97874699    -0.76300
C1563       C  0.70343777  0.54316514  0.01506107     0.84400
N1564       N  0.70231866  0.56501586  0.03507477    -0.76300
C1565       C  0.69837003  0.58541051  0.01854568     0.84500
N1566       N  0.69465169  0.58324490  0.98198241    -0.78000
C1567       C  0.70273161  0.63456830  0.02602942    -0.14700
C1568       C  0.69789076  0.60948071  0.04059151    -0.29800
H1569       H  0.70757040  0.63772806  0.99722648     0.14400
H1570       H  0.69539366  0.60732853  0.06978735     0.14900
C1571       C  0.73852481  0.87877531  0.09000659    -0.16700
C1572       C  0.73987800  0.85638798  0.08779527     0.07300
C1573       C  0.74113802  0.82993494  0.08647189     0.09200
C1574       C  0.74156083  0.80706620  0.08612894    -0.17600
C1575       C  0.70840889  0.52116501  0.03186904    -0.14700
C1576       C  0.69594739  0.01203729  0.05637864    -0.29800
H1577       H  0.72058375  0.01672814  0.00833943     0.14400
H1578       H  0.68244500  0.01919364  0.07180494     0.14900
C1579       C  0.63149345  0.69016283  0.08801217    -0.16700
C1580       C  0.60776058  0.68910824  0.08895868     0.07300
C1581       C  0.58060813  0.68915682  0.09202527     0.09200
C1582       C  0.55799514  0.69014161  0.09592704    -0.17600
C1583       C  0.55796486  0.80587744  0.10431903    -0.16700
C1584       C  0.57945420  0.83004117  0.10061679     0.07300
C1585       C  0.60533957  0.85794718  0.09713395     0.09200
C1586       C  0.62818135  0.88139562  0.09661224    -0.17600
C1587       C  0.77124297  0.67428474  0.16360311    -0.11500
C1588       C  0.78320647  0.66197979  0.17544132    -0.13100
C1589       C  0.77723400  0.56962769  0.19788649    -0.11500
C1590       C  0.76400266  0.54338162  0.19190976    -0.13100
C1591       C  0.89836607  0.66908368  0.18660280    -0.11500
C1592       C  0.87231137  0.65835964  0.19364149    -0.13100
C1593       C  0.83494113  0.74610273  0.04580240    -0.14700
C1594       C  0.81188439  0.74758657  0.03261025    -0.29800
H1595       H  0.83589388  0.74359035  0.07466435     0.14400
H1596       H  0.81079880  0.75017620  0.00380634     0.14900
C1597       C  0.92826946  0.74359554  0.03483938    -0.14700
C1598       C  0.93125784  0.74453299  0.07080027    -0.29800
H1599       H  0.94385679  0.74093949  0.01702972     0.14400
H1600       H  0.91534899  0.74672481  0.08853245     0.14900
C1601       C  0.81008124  0.00966893  0.05721559    -0.14700
C1602       C  0.81922768  0.51492693  0.03258384    -0.29800
H1603       H  0.82734458  0.02586969  0.07508415     0.14400
H1604       H  0.79735397  0.99606108  0.00270975     0.14900
C1605       C  0.93389829  0.63339427  0.04158267    -0.14700
C1606       C  0.91603086  0.60525196  0.05076011    -0.29800
H1607       H  0.93254080  0.63966481  0.01439751     0.14400
H1608       H  0.91553351  0.59935179  0.07867373     0.14900
C1609       C  0.69857299  0.71288378  0.24741295    -0.14700
C1610       C  0.71426867  0.73362939  0.22289064    -0.29800
H1611       H  0.68605830  0.68975252  0.23878209     0.14400
H1612       H  0.72618385  0.75677706  0.23157040     0.14900
C1613       C  0.75926651  0.78556844  0.38249174    -0.14700
C1614       C  0.74746769  0.78268786  0.34971830    -0.29800
H1615       H  0.75143152  0.76619206  0.39867675     0.14400
H1616       H  0.75623390  0.80148908  0.33235179     0.14900
C1617       C  0.95913546  0.52955415  0.43558537    -0.16700
C1618       C  0.93518702  0.50735323  0.43455920     0.07300
C1619       C  0.91034876  0.98678655  0.42876677     0.09200
C1620       C  0.88742839  0.96358085  0.42588766    -0.17600
C1621       C  0.64012988  0.65744576  0.36447696    -0.14700
C1622       C  0.66154811  0.68517902  0.37328817    -0.29800
H1623       H  0.63814551  0.64923935  0.33658010     0.14400
H1624       H  0.66344463  0.69316871  0.40128466     0.14900
C1625       C  0.88761042  0.85284449  0.43288450    -0.16700
C1626       C  0.91043241  0.85215942  0.43059829     0.07300
C1627       C  0.93748090  0.85193619  0.42818934     0.09200
C1628       C  0.96082747  0.85223788  0.42723404    -0.17600
C1629       C  0.57540572  0.95945264  0.43878341    -0.16700
C1630       C  0.57806706  0.98350036  0.43842477     0.07300
C1631       C  0.58438795  0.51336502  0.43194245     0.09200
C1632       C  0.58431426  0.53598709  0.42968208    -0.17600
C1633       C  0.59755178  0.69601411  0.50182455    -0.11500
C1634       C  0.60928377  0.72129656  0.51246461    -0.13100
C1635       C  0.69896234  0.81545136  0.51685350    -0.11500
C1636       C  0.72455211  0.82889669  0.50721808    -0.13100
C1637       C  0.59117335  0.82157155  0.51057648    -0.11200
C1638       C  0.60422225  0.80960230  0.51970568    -0.13100
C1639       C  0.51647498  0.66546808  0.38047154    -0.14700
C1640       C  0.52617723  0.64804697  0.36586758    -0.29800
H1641       H  0.01160731  0.66718556  0.41294271     0.14400
H1642       H  0.53283440  0.64982909  0.33748258     0.14900
C1643       C  0.52178427  0.78335713  0.37055567    -0.14700
C1644       C  0.52274282  0.76025337  0.38285154    -0.29800
H1645       H  0.51831624  0.78441018  0.34196766     0.14400
H1646       H  0.52616615  0.75965631  0.41159322     0.14900
C1647       C  0.01414962  0.72632708  0.24547713    -0.14700
C1648       C  0.00674957  0.70458113  0.26851371    -0.29800
H1649       H  0.52384684  0.74837549  0.25407176     0.14400
H1650       H  0.99611560  0.68189575  0.25803213     0.14900
C1651       C  0.76190967  0.89662196  0.36595908    -0.14700
C1652       C  0.73458160  0.89148460  0.37509441    -0.29800
H1653       H  0.77001132  0.90193075  0.33830062     0.14400
H1654       H  0.72652149  0.88593229  0.40273736     0.14900
C1655       C  0.64008671  0.88642308  0.35242636    -0.14700
C1656       C  0.63747791  0.89455363  0.38668176    -0.29800
H1657       H  0.62141890  0.87787210  0.33404994     0.14400
H1658       H  0.65691823  0.90496831  0.40399200     0.14900
C1659       C  0.71260255  0.90950154  0.25290560    -0.14700
C1660       C  0.69783366  0.91861943  0.23298685    -0.29800
H1661       H  0.73322062  0.91128230  0.24266617     0.14400
H1662       H  0.67821022  0.91838300  0.24436836     0.14900
C1663       C  0.84545715  0.88318306  0.58409297    -0.14700
C1664       C  0.84215794  0.90167124  0.56339298    -0.29800
H1665       H  0.84108064  0.86202288  0.57230848     0.14400
H1666       H  0.84756464  0.92345607  0.57389308     0.14900
C1667       C  0.68350091  0.57410703  0.90359168    -0.14700
C1668       C  0.68716530  0.55550542  0.92354792    -0.29800
H1669       H  0.68973464  0.59608367  0.91421941     0.14400
H1670       H  0.68198117  0.53407932  0.91184678     0.14900
C1671       C  0.79017798  0.70739003  0.76038636    -0.16700
C1672       C  0.76638619  0.68483707  0.75754038     0.07300
C1673       C  0.73864022  0.65807190  0.75696891     0.09200
C1674       C  0.71541928  0.63489205  0.75864260    -0.17600
C1675       C  0.86174153  0.75211767  0.90769649    -0.14700
C1676       C  0.88046142  0.74692497  0.92569439    -0.29800
H1677       H  0.84424866  0.75396973  0.92225858     0.14400
H1678       H  0.89876314  0.74648007  0.91123319     0.14900
C1679       C  0.85707750  0.83639272  0.72207082    -0.14700
C1680       C  0.86869128  0.84768235  0.68981563    -0.29800
H1681       H  0.84354976  0.84383021  0.73689010     0.14400
H1682       H  0.88022575  0.83875445  0.67347416     0.14900
C1683       C  0.90162185  0.63272846  0.76851093    -0.16700
C1684       C  0.90235141  0.65615719  0.76762085     0.07300
C1685       C  0.90243474  0.68330262  0.76682256     0.09200
C1686       C  0.90187569  0.70613268  0.76701839    -0.17600
C1687       C  0.71370858  0.52160725  0.76485981    -0.16700
C1688       C  0.73589985  0.51970646  0.76241150     0.07300
C1689       C  0.76243682  0.51837215  0.76170612     0.09200
C1690       C  0.78575695  0.51858297  0.76215725    -0.17600
C1691       C  0.86241986  0.54731365  0.90156534    -0.14700
C1692       C  0.88351097  0.56382333  0.92633793    -0.29800
H1693       H  0.83940999  0.53395680  0.91039450     0.14400
H1694       H  0.90639629  0.57778277  0.91740584     0.14900
C1695       C  0.85883947  0.95999864  0.69233872    -0.14700
C1696       C  0.86079802  0.93700511  0.70368926    -0.29800
H1697       H  0.85514154  0.96131049  0.66389219     0.14400
H1698       H  0.86466205  0.93615280  0.73222294     0.14900
C1699       C  0.93820785  0.89384177  0.85513196    -0.11500
C1700       C  0.92286521  0.86760909  0.84977169    -0.13100
C1701       C  0.53377448  0.98045122  0.85673678    -0.11500
C1702       C  0.55984708  0.99184722  0.84923088    -0.13100
C1703       C  0.94487659  0.98707356  0.83908876    -0.11500
C1704       C  0.93231901  0.99946947  0.82931900    -0.13100
C1705       C  0.98023347  0.84283203  0.70064827    -0.14700
C1706       C  0.97492597  0.83875607  0.73632608    -0.29800
H1707       H  0.96337866  0.82788216  0.68147528     0.14400
H1708       H  0.99180409  0.85388956  0.75536669     0.14900
C1709       C  0.57288473  0.93689518  0.71314578    -0.14700
C1710       C  0.59271377  0.96419517  0.70230766    -0.29800
H1711       H  0.57173668  0.93180298  0.74152629     0.14400
H1712       H  0.59207143  0.97003572  0.67465892     0.14900
C1713       C  0.54305220  0.89319993  0.59009877    -0.14700
C1714       C  0.52340963  0.87360020  0.56585576    -0.29800
H1715       H  0.56599803  0.90782434  0.58186104     0.14400
H1716       H  0.50027095  0.85943256  0.57367073     0.14900
C1717       C  0.58108322  0.57260013  0.69410114    -0.14700
C1718       C  0.58241820  0.57037056  0.73007169    -0.29800
H1719       H  0.59787544  0.57222613  0.67623468     0.14400
H1720       H  0.56556057  0.57086759  0.74770922     0.14900
C1721       C  0.98813942  0.57662799  0.71232294    -0.14700
C1722       C  0.96104492  0.56925744  0.70035500    -0.29800
H1723       H  0.49302073  0.57981683  0.73788713     0.14400
H1724       H  0.95632192  0.56445955  0.67161439     0.14900
C1725       C  0.55444613  0.58495248  0.56332538    -0.14700
C1726       C  0.53508063  0.58649718  0.58728807    -0.29800
H1727       H  0.56957594  0.57802796  0.57227928     0.14400
H1728       H  0.51957098  0.59285003  0.57807811     0.14900
loop_ 
_geom_bond_atom_site_label_1 
_geom_bond_atom_site_label_2 
_geom_bond_distance 
_geom_bond_site_symmetry_2 
_ccdc_geom_bond_type 
C1            N2   1.363       .  A
C1            N6   1.358       .  A
C1          C430   1.480       .  S
N2            C3   1.362       .  A
C3            N4   1.366       .  A
C3          C421   1.491       .  S
N4            C5   1.360       .  A
C5            N6   1.359       .  A
C5         C1289   1.489   1_455  S
C7            N8   1.350       .  A
C7           N12   1.355       .  A
C7          C417   1.461       .  S
N8            C9   1.351       .  A
C9           N10   1.366       .  A
C9          C413   1.473       .  S
N10          C11   1.369       .  A
C11          N12   1.355       .  A
C11        C1273   1.481   1_455  S
C13          N14   1.355       .  A
C13          N18   1.356       .  A
C13         C407   1.430       .  S
N14         C879   1.355       .  A
C15         N878   1.355       .  A
C15         N880   1.356       .  A
C15         C405   1.431   1_655  S
N16          C17   1.356       .  A
N16         C879   1.356       .  A
C17          N18   1.356       .  A
C17         C403   1.430       .  S
O19         Cr37   1.993       .  S
O19          C27   1.264       .  A
O20         Cr37   2.017       .  S
O20          C21   1.266       .  A
C21         C387   1.451       .  S
C21          O22   1.263       .  A
O22         Cr38   1.994       .  S
O23         Cr38   2.002       .  S
O23          C24   1.264       .  A
C24         C395   1.481       .  S
C24          O25   1.259       .  A
O25         Cr39   1.983       .  S
O26         Cr39   2.016       .  S
O26          C27   1.268       .  A
C27         C394   1.451       .  S
O28         Cr37   2.009       .  S
O28         C468   1.263   1_545  A
O29         Cr37   2.004       .  S
O29          C30   1.265       .  A
C30         C426   1.494       .  S
C30          O31   1.266       .  A
O31         Cr38   2.012       .  S
O32         Cr38   1.978       .  S
O32          C33   1.260       .  A
C33         C840   1.434       .  S
C33         O466   1.264       .  A
O34        Cr471   2.004       .  S
O34         C465   1.262       .  A
O35        Cr471   1.976       .  S
O35          C36   1.258       .  A
C36         C399   1.479       .  S
C36         O460   1.266       .  A
Cr37         O40   1.778       .  S
Cr38         O40   1.777       .  S
Cr39        O466   2.005       .  S
Cr39        O467   1.985   1_545  S
Cr39         O40   1.780       .  S
O41         Cr59   2.040       .  S
O41          C49   1.274       .  A
O42         Cr59   1.987       .  S
O42          C43   1.260       .  A
C43         C375   1.445       .  S
C43          O44   1.264       .  A
O44         Cr60   2.009       .  S
O45         Cr60   1.975       .  S
O45          C46   1.257       .  A
C46         C379   1.473       .  S
C46          O47   1.266       .  A
O47         Cr61   1.997       .  S
O48         Cr61   1.972       .  S
O48          C49   1.259       .  A
C49         C390   1.451       .  S
O50         Cr59   1.988       .  S
O50          C58   1.261       .  A
O51         Cr59   2.039       .  S
O51          C52   1.272       .  A
C52         C383   1.481       .  S
C52          O53   1.255       .  A
O53         Cr60   1.957       .  S
O54         Cr60   2.010       .  S
O54          C55   1.264       .  A
C55         C404   1.430       .  S
C55          O56   1.257       .  A
O56         Cr61   1.970       .  S
O57         Cr61   2.005       .  S
O57          C58   1.262       .  A
C58         C410   1.486       .  S
Cr59         O62   1.776       .  S
Cr60         O62   1.776       .  S
Cr61         O62   1.774       .  S
O63         Cr81   1.977       .  S
O63          C71   1.257       .  A
O64         Cr81   2.025       .  S
O64          C65   1.270       .  A
C65         C391   1.452       .  S
C65          O66   1.262       .  A
O66         Cr82   1.985       .  S
O67         Cr82   2.031       .  S
O67          C68   1.270       .  A
C68         C371   1.487       .  S
C68          O69   1.259       .  A
O69         Cr83   1.975       .  S
O70         Cr83   2.019       .  S
O70          C71   1.265       .  A
C71         C378   1.445       .  S
O72         Cr81   2.035       .  S
O72          C80   1.271       .  A
O73         Cr81   1.973       .  S
O73         C506   1.257   1_545  A
C74         C414   1.482       .  S
C74          O75   1.260       .  A
C74         O505   1.261       .  A
O75        Cr514   2.001       .  S
O76        Cr514   1.965       .  S
O76         C509   1.258       .  A
C77         C838   1.437   1_545  S
C77          O78   1.265       .  A
C77         O508   1.257   1_545  A
O78         Cr83   2.013       .  S
O79         Cr83   1.962       .  S
O79          C80   1.255       .  A
C80         C422   1.483       .  S
Cr81         O84   1.782       .  S
Cr82        O507   2.027   1_545  S
Cr82        O508   1.974   1_545  S
Cr82         O84   1.782       .  S
Cr83         O84   1.779       .  S
C85          N86   1.365       .  A
C85          N90   1.356       .  A
C85         C367   1.477       .  S
N86          C87   1.362       .  A
C87          N88   1.363       .  A
C87         C384   1.492       .  S
N88          C89   1.358       .  A
C89          N90   1.356       .  A
C89         C400   1.480       .  S
C91          N92   1.359       .  A
C91          N96   1.357       .  A
C91         C363   1.477       .  S
N92          C93   1.357       .  A
C93          N94   1.362       .  A
C93         C359   1.477       .  S
N94          C95   1.359       .  A
C95          N96   1.360       .  A
C95         C356   1.483       .  S
C97          N98   1.361       .  A
C97         N102   1.365       .  A
C97         C352   1.473       .  S
N98          C99   1.357       .  A
C99         N100   1.347       .  A
C99        C1207   1.460       .  S
N100        C101   1.347       .  A
C101        N102   1.360       .  A
C101       C1212   1.464       .  S
C103        N104   1.354       .  A
C103        N108   1.357       .  A
C103        C342   1.428       .  S
N104        C105   1.354       .  A
C105        N106   1.354       .  A
C105        C338   1.427       .  S
N106        C107   1.355       .  A
C107        N108   1.356       .  A
C107        C339   1.429       .  S
O109       Cr127   1.986       .  S
O109        C981   1.262   1_455  A
O110       Cr127   2.008       .  S
O110        C111   1.263       .  A
C111        C333   1.432       .  S
C111        O112   1.256       .  A
O112       Cr128   1.974       .  S
O113       Cr128   1.986       .  S
O113        C114   1.264       .  A
C114        C418   1.463       .  S
C114        O115   1.256       .  A
O115       Cr129   1.970       .  S
O116       Cr993   2.003       .  S
O116        C117   1.264       .  A
C117        C332   1.431       .  S
C117        O973   1.261       .  A
O118       Cr127   2.006       .  S
O118        C126   1.264       .  A
O119       Cr127   1.992       .  S
O119        C120   1.265       .  A
C120        C360   1.474       .  S
C120        O121   1.264       .  A
O121       Cr128   1.997       .  S
O122       Cr128   1.963       .  S
O122        C123   1.256       .  A
C123        C341   1.428       .  S
C123        O124   1.264       .  A
O124       Cr129   2.010       .  S
O125       Cr129   1.978       .  S
O125        C126   1.258       .  A
C126        C347   1.473       .  S
Cr127       O130   1.772       .  S
Cr128       O130   1.767       .  S
Cr129       O980   2.012   1_455  S
Cr129       O130   1.775       .  S
O131       Cr149   1.980       .  S
O131        C139   1.261       .  A
O132       Cr149   2.002       .  S
O132        C997   1.261   1_455  A
C133        C321   1.430       .  S
C133        O134   1.262       .  A
C133        O996   1.257       .  A
O134      Cr1014   2.003       .  S
O135       Cr150   2.006       .  S
O135        C136   1.266       .  A
C136        C429   1.484       .  S
C136        O137   1.261       .  A
O137       Cr151   1.986       .  S
O138       Cr151   2.008       .  S
O138        C139   1.266       .  A
C139        C336   1.436       .  S
O140       Cr149   2.007       .  S
O140        C148   1.262       .  A
O141       Cr149   1.988       .  S
O141        C142   1.264       .  A
C142        C344   1.477       .  S
C142        O143   1.267       .  A
O143       Cr150   2.007       .  S
O144       Cr150   1.967       .  S
O144        C145   1.257       .  A
C145        C337   1.427       .  S
C145        O146   1.262       .  A
O146       Cr151   2.002       .  S
O147       Cr151   1.987       .  S
O147        C148   1.261       .  A
C148        C325   1.483       .  S
Cr149       O152   1.778       .  S
Cr150       O998   1.977       .  S
Cr150       O152   1.771       .  S
Cr151       O152   1.774       .  S
O153       Cr171   2.015       .  S
O153        C161   1.266       .  A
O154       Cr171   1.962       .  S
O154        C155   1.253       .  A
C155        C329   1.431       .  S
C155        O156   1.263       .  A
O156       Cr172   2.012       .  S
O157       Cr172   1.966       .  S
O157        C158   1.256       .  A
C158        C368   1.478       .  S
C158        O159   1.271       .  A
O159       Cr173   2.027       .  S
O160       Cr173   1.971       .  S
O160        C161   1.258       .  A
C161        C324   1.435       .  S
O162       Cr171   1.954       .  S
O162        C170   1.254       .  A
O163       Cr171   2.027       .  S
O163        C164   1.270       .  A
C164        C317   1.471       .  S
C164        O165   1.255       .  A
O165       Cr172   1.954       .  S
O166       Cr172   2.011       .  S
O166        C167   1.264       .  A
C167        C340   1.429       .  S
C167        O168   1.256       .  A
O168       Cr173   1.967       .  S
O169       Cr173   2.027       .  S
O169        C170   1.269       .  A
C170        C355   1.470       .  S
Cr171       O174   1.775       .  S
Cr172       O174   1.772       .  S
Cr173       O174   1.773       .  S
C175        N176   1.364       .  A
C175        N180   1.365       .  A
C175        C313   1.483       .  S
N176        C177   1.357       .  A
C177        N178   1.357       .  A
C177        C318   1.484       .  S
N178        C179   1.353       .  A
C179        N180   1.362       .  A
C179        C326   1.481       .  S
C181        N182   1.358       .  A
C181        N186   1.362       .  A
C181        C396   1.478       .  S
N182        C183   1.358   1_556  A
C183        N184   1.358       .  A
C183        C310   1.482       .  S
N184        C185   1.363       .  A
C185        N186   1.360   1_554  A
C185        C306   1.485       .  S
C187        N188   1.354       .  A
C187        N192   1.362       .  A
C187        C380   1.467       .  S
N188        C189   1.350   1_556  A
C189        N190   1.360       .  A
C189        C301   1.475       .  S
N190        C191   1.359       .  A
C191        N192   1.362   1_554  A
C191        C297   1.479       .  S
C193        N194   1.356       .  A
C193        N198   1.356       .  A
C193        C292   1.431       .  S
N194        C195   1.356       .  A
C195        N196   1.356       .  A
C195        C296   1.430       .  S
N196        C197   1.355       .  A
C197        N198   1.356       .  A
C197        C293   1.431       .  S
O199       Cr217   2.011   1_455  S
O199        C207   1.263       .  A
O200       Cr217   1.975   1_455  S
O200        C201   1.261       .  A
C201        C286   1.435       .  S
C201        O202   1.267       .  A
O202      Cr1082   2.012   1_455  S
O203       Cr218   2.015       .  S
O203        C204   1.269       .  A
C204        C351   1.474       .  S
C204        O205   1.257       .  A
O205       Cr219   1.969       .  S
O206      Cr1083   1.981   1_455  S
O206        C207   1.259       .  A
C207        C287   1.439       .  S
O208      Cr1081   2.020       .  S
O208        C216   1.270       .  A
O209      Cr1081   1.971       .  S
O209        C210   1.256       .  A
C210        C309   1.478       .  S
C210        O211   1.266       .  A
O211       Cr218   2.017       .  S
O212       Cr218   1.967       .  S
O212        C213   1.257       .  A
C213        C295   1.429       .  S
C213        O214   1.264       .  A
O214       Cr219   2.011       .  S
O215       Cr219   1.955       .  S
O215        C216   1.254       .  A
C216        C302   1.471       .  S
Cr217      O1072   1.980       .  S
Cr217      O1073   2.008       .  S
Cr217      O1084   1.775       .  S
Cr218      O1066   1.972       .  S
Cr218       O220   1.773       .  S
Cr219      O1070   2.012       .  S
Cr219       O220   1.777       .  S
O220      Cr1081   1.774       .  S
O221       Cr239   2.016       .  S
O221        C229   1.267       .  A
O222       Cr239   1.980       .  S
O222        C223   1.258       .  A
C223        C290   1.438       .  S
C223        O224   1.263       .  A
O224       Cr240   2.006       .  S
O225       Cr240   1.972       .  S
O225        C226   1.257       .  A
C226        C364   1.475       .  S
C226        O227   1.267       .  A
O227       Cr241   2.014       .  S
O228       Cr241   1.976       .  S
O228        C229   1.260       .  A
C229        C275   1.439       .  S
O230       Cr239   1.988       .  S
O230        C238   1.262       .  A
O231       Cr239   2.021       .  S
O231        C232   1.270       .  A
C232        C280   1.478       .  S
C232        O233   1.256       .  A
O233       Cr240   1.968       .  S
O234       Cr240   2.005       .  S
O234        C667   1.263       .  A
C235        C294   1.430       .  S
C235        O666   1.257   1_545  A
C235        O668   1.267   1_545  A
O236       Cr241   1.969       .  S
O236        C667   1.258       .  A
O237       Cr241   2.014       .  S
O237        C238   1.267       .  A
C238        C305   1.484       .  S
Cr239       O242   1.775       .  S
Cr240       O242   1.775       .  S
Cr241       O242   1.772       .  S
O243       Cr261   2.011       .  S
O243        C251   1.265       .  A
O244       Cr261   1.979       .  S
O244        C245   1.259       .  A
C245        C278   1.439       .  S
C245        O246   1.265       .  A
O246       Cr262   2.011       .  S
O247       Cr262   1.978       .  S
O247        C248   1.260       .  A
C248        C314   1.481       .  S
C248        O249   1.268       .  A
O249       Cr263   2.017       .  S
O250       Cr263   1.974       .  S
O250        C251   1.258       .  A
C251        C283   1.435       .  S
O252       Cr261   1.978       .  S
O252        C260   1.259       .  A
O253       Cr261   2.017       .  S
O253        C254   1.266       .  A
C254        C298   1.482       .  S
C254        O255   1.259       .  A
O255       Cr262   1.974       .  S
O256       Cr262   2.007       .  S
O256        C257   1.263       .  A
C257        C291   1.430       .  S
C257        O258   1.257       .  A
O258       Cr263   1.970       .  S
O259       Cr263   2.015       .  S
O259        C260   1.269       .  A
C260        C271   1.482       .  S
Cr261       O264   1.779       .  S
Cr262       O264   1.774       .  S
Cr263       O264   1.774       .  S
C265        N266   1.364       .  A
C265        N270   1.366       .  A
C265        C372   1.489       .  S
N266        C267   1.362   1_556  A
C267        N268   1.355       .  A
C267        C279   1.479       .  S
N268        C269   1.355       .  A
C269        N270   1.362   1_554  A
C269        C272   1.479       .  S
C271        C272   1.344       .  D
C271        H273   1.086   1_554  S
C272        H274   1.086       .  S
C275        C276   1.208       .  T
C276        C277   1.416       .  S
C277        C278   1.208       .  T
C279        C712   1.342   1_545  D
C279        H713   1.087       .  S
C280        C711   1.341       .  D
C280        H282   1.087       .  S
H281        C711   1.087       .  S
C283        C284   1.206       .  T
C284        C285   1.412       .  S
C285        C286   1.206       .  T
C287        C288   1.208       .  T
C288        C289   1.416       .  S
C289        C290   1.208       .  T
C291        C292   1.203       .  T
C293        C294   1.203       .  T
C295        C296   1.202       .  T
C297        C298   1.347       .  D
C297        H299   1.086       .  S
C298        H300   1.086   1_554  S
C301        C302   1.338       .  D
C301        H303   1.087       .  S
C302        H304   1.088       .  S
C305        C738   1.348       .  D
C305        H307   1.087       .  S
C306        C737   1.344       .  D
C306        H740   1.086   1_545  S
H308        C738   1.086       .  S
C309        C310   1.345       .  D
C309        H311   1.087       .  S
C310        H312   1.087       .  S
C313        C314   1.348       .  D
C313        H315   1.086       .  S
C314        H316   1.087       .  S
C317        C318   1.344       .  D
C317        H319   1.087       .  S
C318        H320   1.086       .  S
C321        C322   1.203       .  T
C322        C755   1.407   1_545  S
C323        C324   1.206       .  T
C323        C754   1.412       .  S
C325        C326   1.343       .  D
C325        H327   1.086       .  S
C326        H328   1.087       .  S
C329        C330   1.203       .  T
C330        C331   1.408       .  S
C331        C332   1.203       .  T
C333        C334   1.204       .  T
C334        C767   1.409       .  S
C335        C336   1.207       .  T
C335        C766   1.414   1_545  S
C337        C338   1.201       .  T
C339        C340   1.202       .  T
C341        C342   1.201       .  T
C343        C963   1.481       .  S
C343        C344   1.344       .  D
C343       H1209   1.086       .  S
C344        H346   1.087       .  S
H345       C1207   1.087       .  S
C347        C348   1.346       .  D
C347        H349   1.086       .  S
C348        C965   1.479       .  S
C348        H350   1.086       .  S
C351        C352   1.342       .  D
C351       H1217   1.087       .  S
C352        H354   1.086       .  S
H353       C1215   1.086       .  S
C355        C356   1.342       .  D
C355        H357   1.086       .  S
C356        H358   1.087       .  S
C359        C360   1.340       .  D
C359        H361   1.086       .  S
C360        H362   1.087       .  S
C363        C364   1.344       .  D
C363        H365   1.087       .  S
C364        H366   1.087       .  S
C367        C368   1.340       .  D
C367        H369   1.087       .  S
C368        H370   1.087       .  S
C371        C372   1.347       .  D
C371        H373   1.087       .  S
C372        H374   1.086       .  S
C375        C376   1.212       .  T
C376        C377   1.422       .  S
C377        C378   1.212       .  T
C379        C380   1.341       .  D
C379        H381   1.086       .  S
C380        H382   1.087       .  S
C383        C384   1.346       .  D
C383        H385   1.087       .  S
C384        H386   1.086       .  S
C387        C388   1.215       .  T
C388        C389   1.428       .  S
C389        C390   1.215       .  T
C391        C392   1.215       .  T
C392        C393   1.428       .  S
C393        C394   1.215       .  T
C395        C396   1.346       .  D
C395        H397   1.086       .  S
C396        H398   1.087       .  S
C399        C400   1.348       .  D
C399        H401   1.086       .  S
C400        H402   1.086       .  S
C403        C404   1.203       .  T
C405        C406   1.203       .  T
C406        C509   1.430       .  S
C407        C408   1.203       .  T
C408        C465   1.430       .  S
C409        C875   1.479       .  S
C409        C410   1.343       .  D
C409        H411   1.087       .  S
C410        H412   1.087       .  S
C413        C414   1.340       .  D
C413        H415   1.087       .  S
C414        H416   1.087       .  S
C417        C418   1.339       .  D
C417        H419   1.087       .  S
C418        H420   1.086   1_455  S
C421        C422   1.346       .  D
C421        H423   1.086       .  S
C422        H424   1.086       .  S
C425        C869   1.490       .  S
C425        C426   1.346       .  D
C425       H1291   1.086       .  S
C426        H428   1.087       .  S
H427       C1289   1.087       .  S
C429        C430   1.347       .  D
C429        H431   1.086       .  S
C430        H432   1.087       .  S
C433        N434   1.363       .  A
C433        N438   1.361       .  A
C433        C862   1.483       .  S
N434        C435   1.359       .  A
C435        N436   1.362       .  A
C435        C853   1.487       .  S
N436        C437   1.358       .  A
C437        N438   1.361       .  A
C437       C1721   1.485   1_455  S
C439        N440   1.359       .  A
C439        N444   1.359       .  A
C439        C849   1.478       .  S
N440        C441   1.361       .  A
C441        N442   1.363       .  A
C441        C845   1.493       .  S
N442        C443   1.366       .  A
C443        N444   1.358       .  A
C443       C1705   1.486   1_455  S
C445        N446   1.356       .  A
C445        N450   1.358       .  A
C445        C839   1.434       .  S
N446       C1311   1.356       .  A
C447       N1310   1.358   1_455  A
C447       N1312   1.359   1_455  A
C447        C837   1.437       .  S
N448       C1311   1.355       .  A
N448        C449   1.355       .  A
C449        N450   1.358       .  A
C449        C835   1.432       .  S
O451       Cr469   1.973       .  S
O451        C459   1.257       .  A
O452       Cr469   2.011       .  S
O452        C453   1.264       .  A
C453        C819   1.446       .  S
C453        O454   1.261       .  A
O454       Cr470   1.987       .  S
O455       Cr470   2.034       .  S
O455        C456   1.272       .  A
C456        C827   1.489       .  S
C456        O457   1.261       .  A
O457       Cr471   1.976       .  S
O458       Cr471   2.018       .  S
O458        C459   1.266       .  A
C459        C826   1.440       .  S
O460       Cr469   2.015       .  S
O461       Cr469   1.972       .  S
O461        C462   1.258       .  A
C462        C858   1.487       .  S
C462        O463   1.272       .  A
O463       Cr470   2.033       .  S
O464       Cr470   1.973       .  S
O464        C465   1.257       .  A
O467        C468   1.258       .  A
C468        C831   1.483       .  S
Cr469       O472   1.778       .  S
Cr470       O472   1.776       .  S
Cr471       O472   1.777       .  S
O473       Cr491   2.036       .  S
O473        C481   1.274       .  A
O474       Cr491   1.984       .  S
O474        C475   1.260       .  A
C475        C807   1.444       .  S
C475        O476   1.264       .  A
O476       Cr492   2.006       .  S
O477       Cr492   1.985       .  S
O477        C478   1.257       .  A
C478        C811   1.477       .  S
C478        O479   1.261       .  A
O479       Cr493   1.989       .  S
O480       Cr493   1.972       .  S
O480        C481   1.261       .  A
C481        C822   1.446       .  S
O482       Cr491   1.991       .  S
O482        C490   1.258       .  A
O483       Cr491   2.030       .  S
O483        C484   1.270       .  A
C484        C815   1.482       .  S
C484        O485   1.255       .  A
O485       Cr492   1.960       .  S
O486       Cr492   2.013       .  S
O486        C487   1.267       .  A
C487        C836   1.431       .  S
C487        O488   1.261       .  A
O488       Cr493   1.971       .  S
O489       Cr493   1.995       .  S
O489        C490   1.257       .  A
C490        C842   1.477       .  S
Cr491       O494   1.781       .  S
Cr492       O494   1.780       .  S
Cr493       O494   1.775       .  S
O495       Cr513   1.981       .  S
O495        C503   1.260       .  A
O496       Cr513   2.027       .  S
O496        C497   1.271       .  A
C497        C823   1.440       .  S
C497        O498   1.259       .  A
O498       Cr514   1.968       .  S
O499       Cr514   1.991       .  S
O499        C500   1.262       .  A
C500        C803   1.474       .  S
C500        O501   1.257       .  A
O501       Cr515   1.982       .  S
O502       Cr515   2.013       .  S
O502        C503   1.266       .  A
C503        C810   1.444       .  S
O504       Cr513   2.025       .  S
O504        C512   1.268       .  A
O505       Cr513   1.989       .  S
C506        C846   1.485       .  S
C506        O507   1.269       .  A
C509        O510   1.267       .  A
O510       Cr515   2.016       .  S
O511       Cr515   1.964       .  S
O511        C512   1.256       .  A
C512        C854   1.479       .  S
Cr513       O516   1.776       .  S
Cr514       O516   1.775       .  S
Cr515       O516   1.776       .  S
C517        N518   1.363       .  A
C517        N522   1.359       .  A
C517        C799   1.481       .  S
N518        C519   1.359       .  A
C519        N520   1.363       .  A
C519        C816   1.490       .  S
N520        C521   1.360       .  A
C521        N522   1.360       .  A
C521        C832   1.485       .  S
C523        N524   1.358       .  A
C523        N528   1.361       .  A
C523        C795   1.481       .  S
N524        C525   1.354       .  A
C525        N526   1.361       .  A
C525        C791   1.474       .  S
N526        C527   1.359       .  A
C527        N528   1.364       .  A
C527        C788   1.485       .  S
C529        N530   1.360       .  A
C529        N534   1.368       .  A
C529        C784   1.483       .  S
N530        C531   1.358       .  A
C531        N532   1.349       .  A
C531       C1639   1.469       .  S
N532        C533   1.352       .  A
C533        N534   1.366       .  A
C533       C1644   1.474       .  S
C535        N536   1.356       .  A
C535        N540   1.356       .  A
C535        C774   1.430       .  S
N536        C537   1.356       .  A
C537        N538   1.354       .  A
C537        C770   1.428       .  S
N538        C539   1.354       .  A
C539        N540   1.356       .  A
C539        C771   1.427       .  S
O541       Cr559   1.978       .  S
O541       C1413   1.261   1_455  A
O542       Cr559   2.007       .  S
O542        C543   1.264       .  A
C543        C765   1.436       .  S
C543        O544   1.260       .  A
O544       Cr560   1.983       .  S
O545       Cr560   1.993       .  S
O545        C546   1.262       .  A
C546        C850   1.481       .  S
C546        O547   1.260       .  A
O547       Cr561   1.989       .  S
O548      Cr1425   2.002       .  S
O548        C549   1.263       .  A
C549        C764   1.433       .  S
C549       O1405   1.260       .  A
O550       Cr559   2.010       .  S
O550        C558   1.261       .  A
O551       Cr559   1.988       .  S
O551        C552   1.263       .  A
C552        C792   1.471       .  S
C552        O553   1.262       .  A
O553       Cr560   1.995       .  S
O554       Cr560   1.970       .  S
O554        C555   1.258       .  A
C555        C773   1.430       .  S
C555        O556   1.265       .  A
O556       Cr561   2.007       .  S
O557       Cr561   1.983       .  S
O557        C558   1.260       .  A
C558        C779   1.487       .  S
Cr559       O562   1.779       .  S
Cr560       O562   1.774       .  S
Cr561      O1412   2.010   1_455  S
Cr561       O562   1.774       .  S
O563       Cr581   1.970       .  S
O563        C571   1.258       .  A
O564       Cr581   2.003       .  S
O564       C1429   1.261   1_455  A
C565        C753   1.435       .  S
C565       O1428   1.261       .  A
C565        O566   1.257       .  A
O566      Cr1446   1.977       .  S
O567       Cr582   2.018       .  S
O567        C568   1.269       .  A
C568        C861   1.481       .  S
C568        O569   1.261       .  A
O569       Cr583   1.977       .  S
O570       Cr583   2.011       .  S
O570        C571   1.266       .  A
C571        C768   1.432       .  S
O572       Cr581   2.013       .  S
O572        C580   1.264       .  A
O573       Cr581   1.966       .  S
O573        C574   1.258       .  A
C574        C776   1.471       .  S
C574        O575   1.270       .  A
O575       Cr582   2.014       .  S
O576       Cr582   1.966       .  S
O576        C577   1.255       .  A
C577        C769   1.427       .  S
C577        O578   1.262       .  A
O578       Cr583   2.005       .  S
O579       Cr583   1.979       .  S
O579        C580   1.261       .  A
C580        C757   1.482       .  S
Cr581       O584   1.777       .  S
Cr582      O1430   1.972   1_455  S
Cr582       O584   1.772       .  S
Cr583       O584   1.771       .  S
O585       Cr603   2.008       .  S
O585        C593   1.265       .  A
O586       Cr603   1.966       .  S
O586        C587   1.253       .  A
C587        C761   1.433       .  S
C587        O588   1.263       .  A
O588       Cr604   2.012       .  S
O589       Cr604   1.962       .  S
O589        C590   1.257       .  A
C590        C800   1.478       .  S
C590        O591   1.273       .  A
O591       Cr605   2.035       .  S
O592       Cr605   1.966       .  S
O592        C593   1.257       .  A
C593        C756   1.430       .  S
O594       Cr603   1.959       .  S
O594        C602   1.255       .  A
O595       Cr603   2.023       .  S
O595        C596   1.270       .  A
C596        C749   1.469       .  S
C596        O597   1.255       .  A
O597       Cr604   1.953       .  S
O598       Cr604   2.010       .  S
O598        C599   1.263       .  A
C599        C772   1.427       .  S
C599        O600   1.256       .  A
O600       Cr605   1.964       .  S
O601       Cr605   2.033       .  S
O601        C602   1.271       .  A
C602        C787   1.478       .  S
Cr603       O606   1.774       .  S
Cr604       O606   1.772       .  S
Cr605       O606   1.773       .  S
C607        N608   1.362       .  A
C607        N612   1.364       .  A
C607        C745   1.479       .  S
N608        C609   1.355       .  A
C609        N610   1.356       .  A
C609        C750   1.480       .  S
N610        C611   1.353       .  A
C611        N612   1.362       .  A
C611        C758   1.478       .  S
C613        N614   1.361       .  A
C613        N618   1.364       .  A
C613        C828   1.491       .  S
N614        C615   1.363   1_556  A
C615        N616   1.359       .  A
C615        C742   1.486       .  S
N616        C617   1.362       .  A
C617        N618   1.363   1_554  A
C617        C738   1.487       .  S
C619        N620   1.357       .  A
C619        N624   1.363       .  A
C619        C812   1.470       .  S
N620        C621   1.352   1_556  A
C621        N622   1.357       .  A
C621        C733   1.478       .  S
N622        C623   1.358       .  A
C623        N624   1.363   1_554  A
C623        C729   1.477       .  S
C625        N626   1.356       .  A
C625        N630   1.356       .  A
C625        C724   1.432       .  S
N626        C627   1.356       .  A
C627        N628   1.354       .  A
C627        C728   1.428       .  S
N628        C629   1.354       .  A
C629        N630   1.357       .  A
C629        C725   1.428       .  S
O631       Cr649   1.965   1_455  S
O631        C639   1.253       .  A
O632       Cr649   2.020   1_455  S
O632        C633   1.269       .  A
C633        C718   1.441       .  S
C633        O634   1.260       .  A
O634      Cr1514   1.975   1_455  S
O635       Cr650   2.027       .  S
O635        C636   1.271       .  A
C636        C783   1.485       .  S
C636        O637   1.259       .  A
O637       Cr651   1.975       .  S
O638      Cr1515   2.012   1_455  S
O638        C639   1.263       .  A
C639        C719   1.433       .  S
O640      Cr1513   2.019       .  S
O640        C648   1.269       .  A
O641      Cr1513   1.967       .  S
O641        C642   1.256       .  A
C642        C741   1.481       .  S
C642        O643   1.269       .  A
O643       Cr650   2.028       .  S
O644       Cr650   1.969       .  S
O644        C645   1.257       .  A
C645        C727   1.427       .  S
C645        O646   1.262       .  A
O646       Cr651   2.006       .  S
O647       Cr651   1.960       .  S
O647        C648   1.255       .  A
C648        C734   1.473       .  S
Cr649      O1504   2.023       .  S
Cr649      O1505   1.966       .  S
Cr649      O1516   1.775       .  S
Cr650      O1498   1.976       .  S
Cr650       O652   1.775       .  S
Cr651      O1502   2.011       .  S
Cr651       O652   1.779       .  S
O652      Cr1513   1.777       .  S
O653       Cr671   1.971       .  S
O653        C661   1.255       .  A
O654       Cr671   2.023       .  S
O654        C655   1.269       .  A
C655        C722   1.433       .  S
C655        O656   1.257       .  A
O656       Cr672   1.959       .  S
O657       Cr672   2.012       .  S
O657        C658   1.266       .  A
C658        C796   1.475       .  S
C658        O659   1.259       .  A
O659       Cr673   1.976       .  S
O660       Cr673   2.018       .  S
O660        C661   1.266       .  A
C661        C707   1.442       .  S
O662       Cr671   2.024       .  S
O662        C670   1.270       .  A
O663       Cr671   1.973       .  S
O663        C664   1.255       .  A
C664        C712   1.481       .  S
C664        O665   1.266       .  A
O665       Cr672   2.016       .  S
O666       Cr672   1.964       .  S
C667        C726   1.427       .  S
O668       Cr673   2.017       .  S
O669       Cr673   1.958       .  S
O669        C670   1.255       .  A
C670        C737   1.476   1_565  S
Cr671       O674   1.779       .  S
Cr672       O674   1.774       .  S
Cr673       O674   1.780       .  S
O675       Cr693   2.012       .  S
O675        C683   1.265       .  A
O676       Cr693   1.985       .  S
O676        C677   1.260       .  A
C677        C710   1.443       .  S
C677        O678   1.264       .  A
O678       Cr694   2.011       .  S
O679       Cr694   1.973       .  S
O679        C680   1.260       .  A
C680        C746   1.475       .  S
C680        O681   1.268       .  A
O681       Cr695   2.014       .  S
O682       Cr695   1.979       .  S
O682        C683   1.259       .  A
C683        C715   1.441       .  S
O684       Cr693   1.976       .  S
O684        C692   1.259       .  A
O685       Cr693   2.019       .  S
O685        C686   1.267       .  A
C686        C730   1.483       .  S
C686        O687   1.260       .  A
O687       Cr694   1.971       .  S
O688       Cr694   2.004       .  S
O688        C689   1.262       .  A
C689        C723   1.431       .  S
C689        O690   1.256       .  A
O690       Cr695   1.975       .  S
O691       Cr695   2.008       .  S
O691        C692   1.267       .  A
C692        C703   1.476       .  S
Cr693       O696   1.778       .  S
Cr694       O696   1.773       .  S
Cr695       O696   1.776       .  S
C697        N698   1.356       .  A
C697        N702   1.359       .  A
C697        C804   1.469       .  S
N698        C699   1.354   1_556  A
C699        N700   1.362       .  A
C699        C711   1.480       .  S
N700        C701   1.362       .  A
C701        N702   1.360   1_554  A
C701        C704   1.479       .  S
C703        C704   1.346       .  D
C703        H705   1.086   1_554  S
C704        H706   1.087       .  S
C707        C708   1.210       .  T
C708        C709   1.419       .  S
C709        C710   1.210       .  T
C712        H714   1.086       .  S
C715        C716   1.209       .  T
C716        C717   1.418       .  S
C717        C718   1.209       .  T
C719        C720   1.205       .  T
C720        C721   1.410       .  S
C721        C722   1.204       .  T
C723        C724   1.204       .  T
C725        C726   1.201       .  T
C727        C728   1.201       .  T
C729        C730   1.346       .  D
C729        H731   1.087       .  S
C730        H732   1.086       .  S
C733        C734   1.341       .  D
C733        H735   1.087       .  S
C734        H736   1.087       .  S
C737        H739   1.087       .  S
C741        C742   1.345       .  D
C741        H743   1.087       .  S
C742        H744   1.087       .  S
C745        C746   1.346       .  D
C745        H747   1.086       .  S
C746        H748   1.086       .  S
C749        C750   1.342       .  D
C749        H751   1.087       .  S
C750        H752   1.086       .  S
C753        C754   1.206       .  T
C755        C756   1.203       .  T
C757        C758   1.343       .  D
C757        H759   1.086       .  S
C758        H760   1.087       .  S
C761        C762   1.204       .  T
C762        C763   1.410       .  S
C763        C764   1.205       .  T
C765        C766   1.206       .  T
C767        C768   1.204       .  T
C769        C770   1.201       .  T
C771        C772   1.201       .  T
C773        C774   1.203       .  T
C775       C1395   1.472       .  S
C775        C776   1.340       .  D
C775       H1641   1.087       .  S
C776        H778   1.087       .  S
H777       C1639   1.087       .  S
C779        C780   1.343       .  D
C779        H781   1.086       .  S
C780       C1397   1.480       .  S
C780        H782   1.087       .  S
C783        C784   1.345       .  D
C783       H1649   1.086       .  S
C784        H786   1.086       .  S
H785       C1647   1.086       .  S
C787        C788   1.342       .  D
C787        H789   1.087       .  S
C788        H790   1.087       .  S
C791        C792   1.338       .  D
C791        H793   1.087       .  S
C792        H794   1.087       .  S
C795        C796   1.348       .  D
C795        H797   1.086       .  S
C796        H798   1.086       .  S
C799        C800   1.342       .  D
C799        H801   1.086       .  S
C800        H802   1.087       .  S
C803        C804   1.344       .  D
C803        H805   1.086       .  S
C804        H806   1.087       .  S
C807        C808   1.211       .  T
C808        C809   1.421       .  S
C809        C810   1.211       .  T
C811        C812   1.344       .  D
C811        H813   1.086       .  S
C812        H814   1.087       .  S
C815        C816   1.344       .  D
C815        H817   1.087       .  S
C816        H818   1.086       .  S
C819        C820   1.212       .  T
C820        C821   1.423       .  S
C821        C822   1.212       .  T
C823        C824   1.208       .  T
C824        C825   1.417       .  S
C825        C826   1.208       .  T
C827        C828   1.348       .  D
C827        H829   1.086       .  S
C828        H830   1.086       .  S
C831        C832   1.348       .  D
C831        H833   1.086       .  S
C832        H834   1.086       .  S
C835        C836   1.204       .  T
C837        C838   1.207       .  T
C839        C840   1.205   1_565  T
C841       C1307   1.476       .  S
C841        C842   1.340       .  D
C841        H843   1.086       .  S
C842        H844   1.087       .  S
C845        C846   1.350       .  D
C845        H847   1.086       .  S
C846        H848   1.087       .  S
C849        C850   1.349       .  D
C849        H851   1.087       .  S
C850        H852   1.086       .  S
C853        C854   1.345       .  D
C853        H855   1.086       .  S
C854        H856   1.087       .  S
C857       C1301   1.488       .  S
C857        C858   1.345       .  D
C857       H1723   1.087       .  S
C858        H860   1.087       .  S
H859       C1721   1.087       .  S
C861        C862   1.346       .  D
C861        H863   1.086       .  S
C862        H864   1.086       .  S
C865        N866   1.349       .  A
C865        N870   1.358       .  A
C865       C1294   1.472       .  S
N866        C867   1.352       .  A
C867        N868   1.371       .  A
C867       C1285   1.484       .  S
N868        C869   1.372       .  A
C869        N870   1.361       .  A
C871        N872   1.352       .  A
C871        N876   1.355       .  A
C871       C1281   1.470       .  S
N872        C873   1.354       .  A
C873        N874   1.368       .  A
C873       C1277   1.478       .  S
N874        C875   1.369       .  A
C875        N876   1.358       .  A
C877        N878   1.355       .  A
C877        N882   1.359       .  A
C877       C1271   1.436       .  S
C879       C1269   1.429       .  S
N880        C881   1.357       .  A
C881        N882   1.360       .  A
C881       C1267   1.437       .  S
O883       Cr901   1.976       .  S
O883        C891   1.258       .  A
O884       Cr901   2.019       .  S
O884        C885   1.266       .  A
C885       C1251   1.449       .  S
C885        O886   1.259       .  A
O886       Cr902   1.984       .  S
O887       Cr902   2.032       .  S
O887        C888   1.273       .  A
C888       C1259   1.487       .  S
C888        O889   1.260       .  A
O889       Cr903   1.974       .  S
O890       Cr903   2.018       .  S
O890        C891   1.266       .  A
C891       C1258   1.441       .  S
O892       Cr901   2.028       .  S
O892       C1332   1.268   1_545  A
O893       Cr901   1.968       .  S
O893        C894   1.258       .  A
C894       C1290   1.482       .  S
C894        O895   1.272       .  A
O895       Cr902   2.029       .  S
O896       Cr902   1.968       .  S
O896        C897   1.254       .  A
C897       C1704   1.432   1_545  S
C897       O1330   1.263       .  A
O898      Cr1335   2.005       .  S
O898       C1329   1.262       .  A
O899      Cr1335   1.976       .  S
O899        C900   1.259       .  A
C900       C1263   1.490       .  S
C900       O1324   1.269       .  A
Cr901       O904   1.779       .  S
Cr902       O904   1.778       .  S
Cr903      O1330   2.009       .  S
Cr903      O1331   1.976   1_545  S
Cr903       O904   1.778       .  S
O905       Cr923   1.982       .  S
O905        C913   1.259       .  A
O906       Cr923   2.036       .  S
O906        C907   1.273       .  A
C907       C1239   1.447       .  S
C907        O908   1.259       .  A
O908       Cr924   1.971       .  S
O909       Cr924   2.006       .  S
O909        C910   1.266       .  A
C910       C1243   1.467       .  S
C910        O911   1.253       .  A
O911       Cr925   1.963       .  S
O912       Cr925   2.021       .  S
O912        C913   1.267       .  A
C913       C1254   1.449       .  S
O914       Cr923   2.033       .  S
O914        C922   1.273       .  A
O915       Cr923   1.983       .  S
O915        C916   1.260       .  A
C916       C1247   1.483       .  S
C916        O917   1.264       .  A
O917       Cr924   2.009       .  S
O918       Cr924   1.965       .  S
O918        C919   1.256       .  A
C919       C1268   1.436       .  S
C919        O920   1.268       .  A
O920       Cr925   2.024       .  S
O921       Cr925   1.954       .  S
O921        C922   1.252       .  A
C922       C1274   1.478       .  S
Cr923       O926   1.772       .  S
Cr924       O926   1.772       .  S
Cr925       O926   1.775       .  S
O927       Cr945   1.977       .  S
O927        C935   1.256       .  A
O928       Cr945   2.023       .  S
O928        C929   1.269       .  A
C929       C1255   1.441       .  S
C929        O930   1.258       .  A
O930       Cr946   1.971       .  S
O931       Cr946   2.008       .  S
O931        C932   1.265       .  A
C932       C1235   1.473       .  S
C932        O933   1.260       .  A
O933       Cr947   1.974       .  S
O934       Cr947   2.022       .  S
O934        C935   1.266       .  A
C935       C1242   1.448       .  S
O936       Cr945   2.029       .  S
O936        C944   1.273       .  A
O937       Cr945   1.977       .  S
O937       C1370   1.258   1_545  A
C938       C1278   1.486       .  S
C938       O1369   1.262       .  A
C938        O939   1.264       .  A
O939      Cr1378   2.010       .  S
O940      Cr1378   1.963       .  S
O940       C1373   1.256       .  A
C941       C1702   1.431   1_545  S
C941       O1372   1.257   1_545  A
C941        O942   1.264       .  A
O942       Cr947   2.010       .  S
O943       Cr947   1.971       .  S
O943        C944   1.256       .  A
C944       C1286   1.488       .  S
Cr945       O948   1.775       .  S
Cr946      O1371   2.012   1_545  S
Cr946      O1372   1.970   1_545  S
Cr946       O948   1.777       .  S
Cr947       O948   1.780       .  S
C949        N950   1.355       .  A
C949        N954   1.364       .  A
C949       C1231   1.475       .  S
N950        C951   1.351       .  A
C951        N952   1.360       .  A
C951       C1248   1.478       .  S
N952        C953   1.365       .  A
C953        N954   1.367       .  A
C953       C1264   1.486       .  S
C955        N956   1.359       .  A
C955        N960   1.362       .  A
C955       C1227   1.482       .  S
N956        C957   1.351       .  A
C957        N958   1.357       .  A
C957       C1223   1.471       .  S
N958        C959   1.357       .  A
C959        N960   1.365       .  A
C959       C1220   1.480       .  S
C961        N962   1.362       .  A
C961        N966   1.355       .  A
C961       C1216   1.475       .  S
N962        C963   1.362       .  A
C963        N964   1.362       .  A
N964        C965   1.357       .  A
C965        N966   1.356       .  A
C967        N968   1.354       .  A
C967        N972   1.357       .  A
C967       C1206   1.429       .  S
N968        C969   1.354       .  A
C969        N970   1.355       .  A
C969       C1202   1.427       .  S
N970        C971   1.355       .  A
C971        N972   1.357       .  A
C971       C1203   1.431       .  S
O973       Cr991   1.978       .  S
O974       Cr991   2.002       .  S
O974        C975   1.262       .  A
C975       C1197   1.421       .  S
C975        O976   1.255       .  A
O976       Cr992   1.964       .  S
O977       Cr992   1.994       .  S
O977        C978   1.265       .  A
C978       C1282   1.474       .  S
C978        O979   1.260       .  A
O979       Cr993   1.981       .  S
O980        C981   1.267       .  A
C981       C1196   1.443       .  S
O982       Cr991   2.003       .  S
O982        C990   1.260       .  A
O983       Cr991   1.983       .  S
O983        C984   1.262       .  A
C984       C1224   1.470       .  S
C984        O985   1.262       .  A
O985       Cr992   1.997       .  S
O986       Cr992   1.963       .  S
O986        C987   1.255       .  A
C987       C1205   1.428       .  S
C987        O988   1.264       .  A
O988       Cr993   2.010       .  S
O989       Cr993   1.967       .  S
O989        C990   1.260       .  A
C990       C1211   1.473       .  S
Cr991       O994   1.777       .  S
Cr992       O994   1.768       .  S
Cr993       O994   1.770       .  S
O995      Cr1013   2.000       .  S
O995       C1003   1.262       .  A
O996      Cr1013   1.973       .  S
C997       C1185   1.431       .  S
C997        O998   1.257   1_655  A
O999      Cr1014   1.968       .  S
O999       C1000   1.257       .  A
C1000      C1293   1.475       .  S
C1000      O1001   1.270       .  A
O1001     Cr1015   2.016       .  S
O1002     Cr1015   1.967       .  S
O1002      C1003   1.256       .  A
C1003      C1200   1.425       .  S
O1004     Cr1013   1.966       .  S
O1004      C1012   1.258       .  A
O1005     Cr1013   2.011       .  S
O1005      C1006   1.263       .  A
C1006      C1208   1.471       .  S
C1006      O1007   1.259       .  A
O1007     Cr1014   1.953       .  S
O1008     Cr1014   2.007       .  S
O1008      C1009   1.262       .  A
C1009      C1201   1.426       .  S
C1009      O1010   1.255       .  A
O1010     Cr1015   1.965       .  S
O1011     Cr1015   2.019       .  S
O1011      C1012   1.268       .  A
C1012      C1189   1.474       .  S
Cr1013     O1016   1.776       .  S
Cr1014     O1016   1.770       .  S
Cr1015     O1016   1.771       .  S
O1017     Cr1035   1.971       .  S
O1017      C1025   1.260       .  A
O1018     Cr1035   2.006       .  S
O1018      C1019   1.262       .  A
C1019      C1193   1.443       .  S
C1019      O1020   1.260       .  A
O1020     Cr1036   1.991       .  S
O1021     Cr1036   1.995       .  S
O1021      C1022   1.265       .  A
C1022      C1232   1.483       .  S
C1022      O1023   1.260       .  A
O1023     Cr1037   1.989       .  S
O1024     Cr1037   2.007       .  S
O1024      C1025   1.266       .  A
C1025      C1188   1.429       .  S
O1026     Cr1035   2.001       .  S
O1026      C1034   1.260       .  A
O1027     Cr1035   1.985       .  S
O1027      C1028   1.264       .  A
C1028      C1181   1.478       .  S
C1028      O1029   1.266       .  A
O1029     Cr1036   2.007       .  S
O1030     Cr1036   1.973       .  S
O1030      C1031   1.259       .  A
C1031      C1204   1.431       .  S
C1031      O1032   1.263       .  A
O1032     Cr1037   2.002       .  S
O1033     Cr1037   1.989       .  S
O1033      C1034   1.260       .  A
C1034      C1219   1.479       .  S
Cr1035     O1038   1.777       .  S
Cr1036     O1038   1.772       .  S
Cr1037     O1038   1.780       .  S
C1039      N1040   1.359       .  A
C1039      N1044   1.355       .  A
C1039      C1177   1.476       .  S
N1040      C1041   1.357       .  A
C1041      N1042   1.363       .  A
C1041      C1182   1.479       .  S
N1042      C1043   1.361       .  A
C1043      N1044   1.360       .  A
C1043      C1190   1.482       .  S
C1045      N1046   1.360       .  A
C1045      N1050   1.368       .  A
C1045      C1260   1.487       .  S
N1046      C1047   1.359   1_556  A
C1047      N1048   1.353       .  A
C1047      C1174   1.478       .  S
N1048      C1049   1.358       .  A
C1049      N1050   1.365   1_554  A
C1049      C1170   1.490       .  S
C1051      N1052   1.358       .  A
C1051      N1056   1.351       .  A
C1051      C1244   1.466       .  S
N1052      C1053   1.357   1_556  A
C1053      N1054   1.363       .  A
C1053      C1165   1.475       .  S
N1054      C1055   1.361       .  A
C1055      N1056   1.355   1_554  A
C1055      C1161   1.475       .  S
C1057      N1058   1.356       .  A
C1057      N1062   1.356       .  A
C1057      C1156   1.432       .  S
N1058      C1059   1.357       .  A
C1059      N1060   1.355       .  A
C1059      C1160   1.430       .  S
N1060      C1061   1.355       .  A
C1061      N1062   1.356       .  A
C1061      C1157   1.430       .  S
O1063     Cr1081   1.973       .  S
O1063      C1071   1.256       .  A
O1064     Cr1081   2.017       .  S
O1064      C1065   1.268       .  A
C1065      C1150   1.437       .  S
C1065      O1066   1.259       .  A
O1067     Cr1082   1.975   1_455  S
O1067      C1068   1.257       .  A
C1068      C1215   1.478       .  S
C1068      O1069   1.267   1_455  A
O1069     Cr1083   2.006       .  S
O1070      C1071   1.264       .  A
C1071      C1151   1.437       .  S
O1072      C1080   1.263       .  A
O1073      C1074   1.262       .  A
C1074      C1173   1.479       .  S
C1074      O1075   1.259       .  A
O1075     Cr1082   1.980       .  S
O1076     Cr1082   2.009       .  S
O1076      C1077   1.264       .  A
C1077      C1159   1.430       .  S
C1077      O1078   1.256       .  A
O1078     Cr1083   1.966       .  S
O1079     Cr1083   2.008       .  S
O1079      C1080   1.266       .  A
C1080      C1166   1.476       .  S
Cr1082     O1084   1.774       .  S
Cr1083     O1084   1.773       .  S
O1085     Cr1103   1.976       .  S
O1085      C1093   1.259       .  A
O1086     Cr1103   2.023       .  S
O1086      C1087   1.269       .  A
C1087      C1154   1.437       .  S
C1087      O1088   1.258       .  A
O1088     Cr1104   1.966       .  S
O1089     Cr1104   1.991       .  S
O1089      C1090   1.260       .  A
C1090      C1228   1.470       .  S
C1090      O1091   1.259       .  A
O1091     Cr1105   1.987       .  S
O1092     Cr1105   2.011       .  S
O1092      C1093   1.266       .  A
C1093      C1139   1.440       .  S
O1094     Cr1103   2.022       .  S
O1094      C1102   1.267       .  A
O1095     Cr1103   1.984       .  S
O1095      C1096   1.260       .  A
C1096      C1144   1.476       .  S
C1096      O1097   1.260       .  A
O1097     Cr1104   1.999       .  S
O1098     Cr1104   1.963       .  S
O1098      C1531   1.257       .  A
C1099      C1158   1.429       .  S
C1099      O1530   1.258       .  A
C1099      O1532   1.267   1_545  A
O1100     Cr1105   2.015       .  S
O1100      C1531   1.267       .  A
O1101     Cr1105   1.971       .  S
O1101      C1102   1.258       .  A
C1102      C1169   1.481       .  S
Cr1103     O1106   1.778       .  S
Cr1104     O1106   1.774       .  S
Cr1105     O1106   1.777       .  S
O1107     Cr1125   2.011       .  S
O1107      C1115   1.265       .  A
O1108     Cr1125   1.978       .  S
O1108      C1109   1.258       .  A
C1109      C1142   1.440       .  S
C1109      O1110   1.266       .  A
O1110     Cr1126   2.016       .  S
O1111     Cr1126   1.967       .  S
O1111      C1112   1.258       .  A
C1112      C1178   1.473       .  S
C1112      O1113   1.269       .  A
O1113     Cr1127   2.017       .  S
O1114     Cr1127   1.976       .  S
O1114      C1115   1.258       .  A
C1115      C1147   1.438       .  S
O1116     Cr1125   1.971       .  S
O1116      C1124   1.258       .  A
O1117     Cr1125   2.013       .  S
O1117      C1118   1.266       .  A
C1118      C1162   1.471       .  S
C1118      O1119   1.257       .  A
O1119     Cr1126   1.966       .  S
O1120     Cr1126   2.011       .  S
O1120      C1121   1.263       .  A
C1121      C1155   1.431       .  S
C1121      O1122   1.256       .  A
O1122     Cr1127   1.968       .  S
O1123     Cr1127   2.016       .  S
O1123      C1124   1.268       .  A
C1124      C1135   1.476       .  S
Cr1125     O1128   1.774       .  S
Cr1126     O1128   1.774       .  S
Cr1127     O1128   1.773       .  S
C1129      N1130   1.358       .  A
C1129      N1134   1.356       .  A
C1129      C1236   1.475       .  S
N1130      C1131   1.356   1_556  A
C1131      N1132   1.363       .  A
C1131      C1143   1.477       .  S
N1132      C1133   1.362       .  A
C1133      N1134   1.359   1_554  A
C1133      C1136   1.483       .  S
C1135      C1136   1.346       .  D
C1135      H1137   1.087       .  S
C1136      H1138   1.087       .  S
C1139      C1140   1.209       .  T
C1140      C1141   1.417       .  S
C1141      C1142   1.209       .  T
C1143      C1576   1.341       .  D
C1143      H1577   1.086       .  S
C1144      C1575   1.339       .  D
C1144      H1146   1.087       .  S
H1145      C1575   1.087       .  S
C1147      C1148   1.207       .  T
C1148      C1149   1.414       .  S
C1149      C1150   1.207       .  T
C1151      C1152   1.207       .  T
C1152      C1153   1.414       .  S
C1153      C1154   1.207       .  T
C1155      C1156   1.204       .  T
C1157      C1158   1.203       .  T
C1159      C1160   1.203       .  T
C1161      C1162   1.348       .  D
C1161      H1163   1.086       .  S
C1162      H1164   1.086       .  S
C1165      C1166   1.342       .  D
C1165      H1167   1.086       .  S
C1166      H1168   1.087       .  S
C1169      C1602   1.349       .  D
C1169      H1171   1.086       .  S
C1170      C1601   1.351       .  D
C1170      H1604   1.086   1_545  S
H1172      C1602   1.086       .  S
C1173      C1174   1.344       .  D
C1173      H1175   1.086       .  S
C1174      H1176   1.087       .  S
C1177      C1178   1.343       .  D
C1177      H1179   1.087       .  S
C1178      H1180   1.087       .  S
C1181      C1182   1.342       .  D
C1181      H1183   1.087       .  S
C1182      H1184   1.087       .  S
C1185      C1186   1.203       .  T
C1186      C1619   1.408   1_545  S
C1187      C1188   1.202       .  T
C1187      C1618   1.406       .  S
C1189      C1190   1.346       .  D
C1189      H1191   1.087       .  S
C1190      H1192   1.086       .  S
C1193      C1194   1.210       .  T
C1194      C1195   1.420       .  S
C1195      C1196   1.210       .  T
C1197      C1198   1.198       .  T
C1198      C1631   1.399       .  S
C1199      C1200   1.200       .  T
C1199      C1630   1.403   1_545  S
C1201      C1202   1.201       .  T
C1203      C1204   1.203       .  T
C1205      C1206   1.202       .  T
C1207      C1208   1.339       .  D
C1208      H1210   1.086       .  S
C1211      C1212   1.337       .  D
C1211      H1213   1.086       .  S
C1212      H1214   1.087       .  S
C1215      C1216   1.342       .  D
C1216      H1218   1.087       .  S
C1219      C1220   1.342       .  D
C1219      H1221   1.086       .  S
C1220      H1222   1.087       .  S
C1223      C1224   1.339       .  D
C1223      H1225   1.086       .  S
C1224      H1226   1.087       .  S
C1227      C1228   1.345       .  D
C1227      H1229   1.086       .  S
C1228      H1230   1.086       .  S
C1231      C1232   1.344       .  D
C1231      H1233   1.088       .  S
C1232      H1234   1.086       .  S
C1235      C1236   1.344       .  D
C1235      H1237   1.087       .  S
C1236      H1238   1.087       .  S
C1239      C1240   1.213       .  T
C1240      C1241   1.424       .  S
C1241      C1242   1.213       .  T
C1243      C1244   1.338       .  D
C1243      H1245   1.087       .  S
C1244      H1246   1.087       .  S
C1247      C1248   1.343       .  D
C1247      H1249   1.086       .  S
C1248      H1250   1.086       .  S
C1251      C1252   1.214       .  T
C1252      C1253   1.425       .  S
C1253      C1254   1.214       .  T
C1255      C1256   1.210       .  T
C1256      C1257   1.418       .  S
C1257      C1258   1.209       .  T
C1259      C1260   1.345       .  D
C1259      H1261   1.087       .  S
C1260      H1262   1.086       .  S
C1263      C1264   1.351       .  D
C1263      H1265   1.086       .  S
C1264      H1266   1.087       .  S
C1267      C1268   1.207       .  T
C1269      C1270   1.202       .  T
C1270      C1373   1.428       .  S
C1271      C1272   1.206       .  T
C1272      C1329   1.436       .  S
C1273      C1274   1.337       .  D
C1273      H1275   1.087       .  S
C1274      H1276   1.087       .  S
C1277      C1278   1.342       .  D
C1277      H1279   1.087       .  S
C1278      H1280   1.086       .  S
C1281      C1282   1.344       .  D
C1281      H1283   1.087       .  S
C1282      H1284   1.086       .  S
C1285      C1286   1.339       .  D
C1285      H1287   1.087       .  S
C1286      H1288   1.086       .  S
C1289      C1290   1.348       .  D
C1290      H1292   1.087       .  S
C1293      C1294   1.340       .  D
C1293      H1295   1.087       .  S
C1294      H1296   1.087       .  S
C1297      N1298   1.363       .  A
C1297      N1302   1.365       .  A
C1297      C1726   1.489       .  S
N1298      C1299   1.361       .  A
C1299      N1300   1.361       .  A
C1299      C1717   1.487       .  S
N1300      C1301   1.357       .  A
C1301      N1302   1.363       .  A
C1303      N1304   1.360       .  A
C1303      N1308   1.357       .  A
C1303      C1713   1.477       .  S
N1304      C1305   1.361       .  A
C1305      N1306   1.362       .  A
C1305      C1709   1.483       .  S
N1306      C1307   1.363       .  A
C1307      N1308   1.355       .  A
C1309      N1310   1.357       .  A
C1309      N1314   1.354       .  A
C1309      C1703   1.432       .  S
C1311      C1701   1.431       .  S
N1312      C1313   1.358       .  A
C1313      N1314   1.354       .  A
C1313      C1699   1.432       .  S
O1315     Cr1333   1.972       .  S
O1315      C1323   1.255       .  A
O1316     Cr1333   2.018       .  S
O1316      C1317   1.267       .  A
C1317      C1683   1.449       .  S
C1317      O1318   1.262       .  A
O1318     Cr1334   1.988       .  S
O1319     Cr1334   2.025       .  S
O1319      C1320   1.270       .  A
C1320      C1691   1.489       .  S
C1320      O1321   1.263       .  A
O1321     Cr1335   1.984       .  S
O1322     Cr1335   2.018       .  S
O1322      C1323   1.265       .  A
C1323      C1690   1.441       .  S
O1324     Cr1333   2.026       .  S
O1325     Cr1333   1.969       .  S
O1325      C1326   1.256       .  A
C1326      C1722   1.481       .  S
C1326      O1327   1.269       .  A
O1327     Cr1334   2.024       .  S
O1328     Cr1334   1.981       .  S
O1328      C1329   1.259       .  A
O1331      C1332   1.260       .  A
C1332      C1695   1.489       .  S
Cr1333     O1336   1.781       .  S
Cr1334     O1336   1.779       .  S
Cr1335     O1336   1.780       .  S
O1337     Cr1355   1.990       .  S
O1337      C1345   1.261       .  A
O1338     Cr1355   2.027       .  S
O1338      C1339   1.272       .  A
C1339      C1671   1.441       .  S
C1339      O1340   1.262       .  A
O1340     Cr1356   1.972       .  S
O1341     Cr1356   1.996       .  S
O1341      C1342   1.259       .  A
C1342      C1675   1.470       .  S
C1342      O1343   1.259       .  A
O1343     Cr1357   1.976       .  S
O1344     Cr1357   2.009       .  S
O1344      C1345   1.265       .  A
C1345      C1686   1.449       .  S
O1346     Cr1355   2.024       .  S
O1346      C1354   1.269       .  A
O1347     Cr1355   1.995       .  S
O1347      C1348   1.260       .  A
C1348      C1679   1.478       .  S
C1348      O1349   1.258       .  A
O1349     Cr1356   1.993       .  S
O1350     Cr1356   1.973       .  S
O1350      C1351   1.261       .  A
C1351      C1700   1.431       .  S
C1351      O1352   1.266       .  A
O1352     Cr1357   2.009       .  S
O1353     Cr1357   1.965       .  S
O1353      C1354   1.255       .  A
C1354      C1706   1.483       .  S
Cr1355     O1358   1.779       .  S
Cr1356     O1358   1.779       .  S
Cr1357     O1358   1.778       .  S
O1359     Cr1377   1.980       .  S
O1359      C1367   1.259       .  A
O1360     Cr1377   2.024       .  S
O1360      C1361   1.269       .  A
C1361      C1687   1.441       .  S
C1361      O1362   1.258       .  A
O1362     Cr1378   1.971       .  S
O1363     Cr1378   2.001       .  S
O1363      C1364   1.265       .  A
C1364      C1667   1.475       .  S
C1364      O1365   1.258       .  A
O1365     Cr1379   1.978       .  S
O1366     Cr1379   2.012       .  S
O1366      C1367   1.266       .  A
C1367      C1674   1.441       .  S
O1368     Cr1377   2.024       .  S
O1368      C1376   1.268       .  A
O1369     Cr1377   1.986       .  S
C1370      C1710   1.480       .  S
C1370      O1371   1.265       .  A
C1373      O1374   1.264       .  A
O1374     Cr1379   2.011       .  S
O1375     Cr1379   1.969       .  S
O1375      C1376   1.257       .  A
C1376      C1718   1.480       .  S
Cr1377     O1380   1.776       .  S
Cr1378     O1380   1.774       .  S
Cr1379     O1380   1.778       .  S
C1381      N1382   1.356       .  A
C1381      N1386   1.366       .  A
C1381      C1663   1.475       .  S
N1382      C1383   1.351       .  A
C1383      N1384   1.359       .  A
C1383      C1680   1.477       .  S
N1384      C1385   1.362       .  A
C1385      N1386   1.367       .  A
C1385      C1696   1.485       .  S
C1387      N1388   1.361       .  A
C1387      N1392   1.361       .  A
C1387      C1659   1.482       .  S
N1388      C1389   1.355       .  A
C1389      N1390   1.357       .  A
C1389      C1655   1.474       .  S
N1390      C1391   1.356       .  A
C1391      N1392   1.362       .  A
C1391      C1652   1.476       .  S
C1393      N1394   1.359       .  A
C1393      N1398   1.370       .  A
C1393      C1648   1.482       .  S
N1394      C1395   1.356       .  A
C1395      N1396   1.351       .  A
N1396      C1397   1.355       .  A
C1397      N1398   1.367       .  A
C1399      N1400   1.353       .  A
C1399      N1404   1.355       .  A
C1399      C1638   1.423       .  S
N1400      C1401   1.353       .  A
C1401      N1402   1.355       .  A
C1401      C1634   1.424       .  S
N1402      C1403   1.355       .  A
C1403      N1404   1.354       .  A
C1403      C1635   1.427       .  S
O1405     Cr1423   1.979       .  S
O1406     Cr1423   2.007       .  S
O1406      C1407   1.264       .  A
C1407      C1629   1.426       .  S
C1407      O1408   1.255       .  A
O1408     Cr1424   1.964       .  S
O1409     Cr1424   1.999       .  S
O1409      C1410   1.264       .  A
C1410      C1714   1.477       .  S
C1410      O1411   1.261       .  A
O1411     Cr1425   1.984       .  S
O1412      C1413   1.267       .  A
C1413      C1628   1.437       .  S
O1414     Cr1423   2.009       .  S
O1414      C1422   1.263       .  A
O1415     Cr1423   1.981       .  S
O1415      C1416   1.261       .  A
C1416      C1656   1.471       .  S
C1416      O1417   1.263       .  A
O1417     Cr1424   2.000       .  S
O1418     Cr1424   1.962       .  S
O1418      C1419   1.255       .  A
C1419      C1637   1.424       .  S
C1419      O1420   1.262       .  A
O1420     Cr1425   2.005       .  S
O1421     Cr1425   1.978       .  S
O1421      C1422   1.262       .  A
C1422      C1643   1.482       .  S
Cr1423     O1426   1.777       .  S
Cr1424     O1426   1.772       .  S
Cr1425     O1426   1.771       .  S
O1427     Cr1445   1.959       .  S
O1427      C1435   1.256       .  A
O1428     Cr1445   2.006       .  S
C1429      C1617   1.429       .  S
C1429      O1430   1.256       .  A
O1431     Cr1446   2.017       .  S
O1431      C1432   1.269       .  A
C1432      C1725   1.488       .  S
C1432      O1433   1.264       .  A
O1433     Cr1447   1.989       .  S
O1434     Cr1447   2.004       .  S
O1434      C1435   1.263       .  A
C1435      C1632   1.421       .  S
O1436     Cr1445   2.011       .  S
O1436      C1444   1.264       .  A
O1437     Cr1445   1.959       .  S
O1437      C1438   1.256       .  A
C1438      C1640   1.469       .  S
C1438      O1439   1.271       .  A
O1439     Cr1446   2.017       .  S
O1440     Cr1446   1.970       .  S
O1440      C1441   1.257       .  A
C1441      C1633   1.424       .  S
C1441      O1442   1.259       .  A
O1442     Cr1447   1.994       .  S
O1443     Cr1447   1.992       .  S
O1443      C1444   1.263       .  A
C1444      C1621   1.486       .  S
Cr1445     O1448   1.778       .  S
Cr1446     O1448   1.771       .  S
Cr1447     O1448   1.774       .  S
O1449     Cr1467   1.972       .  S
O1449      C1457   1.260       .  A
O1450     Cr1467   2.008       .  S
O1450      C1451   1.262       .  A
C1451      C1625   1.437       .  S
C1451      O1452   1.258       .  A
O1452     Cr1468   1.980       .  S
O1453     Cr1468   1.998       .  S
O1453      C1454   1.266       .  A
C1454      C1664   1.482       .  S
C1454      O1455   1.261       .  A
O1455     Cr1469   1.986       .  S
O1456     Cr1469   2.007       .  S
O1456      C1457   1.266       .  A
C1457      C1620   1.430       .  S
O1458     Cr1467   2.003       .  S
O1458      C1466   1.261       .  A
O1459     Cr1467   1.983       .  S
O1459      C1460   1.262       .  A
C1460      C1613   1.475       .  S
C1460      O1461   1.266       .  A
O1461     Cr1468   2.006       .  S
O1462     Cr1468   1.967       .  S
O1462      C1463   1.256       .  A
C1463      C1636   1.427       .  S
C1463      O1464   1.262       .  A
O1464     Cr1469   2.003       .  S
O1465     Cr1469   1.984       .  S
O1465      C1466   1.260       .  A
C1466      C1651   1.476       .  S
Cr1467     O1470   1.777       .  S
Cr1468     O1470   1.767       .  S
Cr1469     O1470   1.775       .  S
C1471      N1472   1.361       .  A
C1471      N1476   1.365       .  A
C1471      C1609   1.484       .  S
N1472      C1473   1.355       .  A
C1473      N1474   1.358       .  A
C1473      C1614   1.477       .  S
N1474      C1475   1.357       .  A
C1475      N1476   1.365       .  A
C1475      C1622   1.485       .  S
C1477      N1478   1.365       .  A
C1477      N1482   1.365       .  A
C1477      C1692   1.490       .  S
N1478      C1479   1.363   1_556  A
C1479      N1480   1.355       .  A
C1479      C1606   1.486       .  S
N1480      C1481   1.360       .  A
C1481      N1482   1.362   1_554  A
C1481      C1602   1.489       .  S
C1483      N1484   1.355       .  A
C1483      N1488   1.362       .  A
C1483      C1676   1.472       .  S
N1484      C1485   1.353   1_556  A
C1485      N1486   1.362       .  A
C1485      C1597   1.478       .  S
N1486      C1487   1.360       .  A
C1487      N1488   1.360   1_554  A
C1487      C1593   1.482       .  S
C1489      N1490   1.356       .  A
C1489      N1494   1.357       .  A
C1489      C1588   1.432       .  S
N1490      C1491   1.356       .  A
C1491      N1492   1.354       .  A
C1491      C1592   1.428       .  S
N1492      C1493   1.354       .  A
C1493      N1494   1.357       .  A
C1493      C1589   1.430       .  S
O1495     Cr1513   1.970       .  S
O1495      C1503   1.255       .  A
O1496     Cr1513   2.014       .  S
O1496      C1497   1.267       .  A
C1497      C1582   1.439       .  S
C1497      O1498   1.260       .  A
O1499     Cr1514   2.032       .  S
O1499      C1500   1.272   1_655  A
C1500      C1647   1.485       .  S
C1500      O1501   1.258       .  A
O1501     Cr1515   1.972   1_455  S
O1502      C1503   1.263       .  A
C1503      C1583   1.434       .  S
O1504      C1512   1.271       .  A
O1505      C1506   1.254       .  A
C1506      C1605   1.485       .  S
C1506      O1507   1.270       .  A
O1507     Cr1514   2.034       .  S
O1508     Cr1514   1.970       .  S
O1508      C1509   1.258       .  A
C1509      C1591   1.428       .  S
C1509      O1510   1.263       .  A
O1510     Cr1515   2.008       .  S
O1511     Cr1515   1.955       .  S
O1511      C1512   1.254       .  A
C1512      C1598   1.473       .  S
Cr1514     O1516   1.774       .  S
Cr1515     O1516   1.779       .  S
O1517     Cr1535   1.987       .  S
O1517      C1525   1.261       .  A
O1518     Cr1535   2.022       .  S
O1518      C1519   1.270       .  A
C1519      C1586   1.433       .  S
C1519      O1520   1.258       .  A
O1520     Cr1536   1.962       .  S
O1521     Cr1536   1.990       .  S
O1521      C1522   1.260       .  A
C1522      C1660   1.472       .  S
C1522      O1523   1.261       .  A
O1523     Cr1537   1.992       .  S
O1524     Cr1537   2.010       .  S
O1524      C1525   1.265       .  A
C1525      C1571   1.446       .  S
O1526     Cr1535   2.016       .  S
O1526      C1534   1.266       .  A
O1527     Cr1535   1.993       .  S
O1527      C1528   1.260       .  A
C1528      C1576   1.478   1_565  S
C1528      O1529   1.258       .  A
O1529     Cr1536   1.995       .  S
O1530     Cr1536   1.966   1_545  S
C1531      C1590   1.429       .  S
O1532     Cr1537   2.014       .  S
O1533     Cr1537   1.974       .  S
O1533      C1534   1.259       .  A
C1534      C1601   1.481   1_565  S
Cr1535     O1538   1.781       .  S
Cr1536     O1538   1.776       .  S
Cr1537     O1538   1.777       .  S
O1539     Cr1557   2.016       .  S
O1539      C1547   1.266       .  A
O1540     Cr1557   1.980       .  S
O1540      C1541   1.258       .  A
C1541      C1574   1.446       .  S
C1541      O1542   1.266       .  A
O1542     Cr1558   2.019       .  S
O1543     Cr1558   1.979       .  S
O1543      C1544   1.261       .  A
C1544      C1610   1.480       .  S
C1544      O1545   1.267       .  A
O1545     Cr1559   2.016       .  S
O1546     Cr1559   1.973       .  S
O1546      C1547   1.258       .  A
C1547      C1579   1.439       .  S
O1548     Cr1557   1.976       .  S
O1548      C1556   1.258       .  A
O1549     Cr1557   2.020       .  S
O1549      C1550   1.268       .  A
C1550      C1594   1.484       .  S
C1550      O1551   1.259       .  A
O1551     Cr1558   1.973       .  S
O1552     Cr1558   2.011       .  S
O1552      C1553   1.264       .  A
C1553      C1587   1.431       .  S
C1553      O1554   1.256       .  A
O1554     Cr1559   1.968       .  S
O1555     Cr1559   2.014       .  S
O1555      C1556   1.267       .  A
C1556      C1567   1.479       .  S
Cr1557     O1560   1.779       .  S
Cr1558     O1560   1.776       .  S
Cr1559     O1560   1.777       .  S
C1561      N1562   1.354       .  A
C1561      N1566   1.361       .  A
C1561      C1668   1.472       .  S
N1562      C1563   1.353   1_556  A
C1563      N1564   1.361       .  A
C1563      C1575   1.473       .  S
N1564      C1565   1.362       .  A
C1565      N1566   1.362   1_554  A
C1565      C1568   1.482       .  S
C1567      C1568   1.346       .  D
C1567      H1569   1.087   1_554  S
C1568      H1570   1.087       .  S
C1571      C1572   1.212       .  T
C1572      C1573   1.423       .  S
C1573      C1574   1.212       .  T
C1576      H1578   1.087       .  S
C1579      C1580   1.208       .  T
C1580      C1581   1.416       .  S
C1581      C1582   1.208       .  T
C1583      C1584   1.205       .  T
C1584      C1585   1.411       .  S
C1585      C1586   1.205       .  T
C1587      C1588   1.203       .  T
C1589      C1590   1.202       .  T
C1591      C1592   1.201       .  T
C1593      C1594   1.349       .  D
C1593      H1595   1.086       .  S
C1594      H1596   1.086       .  S
C1597      C1598   1.339       .  D
C1597      H1599   1.087       .  S
C1598      H1600   1.088       .  S
C1601      H1603   1.087       .  S
C1605      C1606   1.343       .  D
C1605      H1607   1.087       .  S
C1606      H1608   1.087       .  S
C1609      C1610   1.349       .  D
C1609      H1611   1.086       .  S
C1610      H1612   1.086       .  S
C1613      C1614   1.343       .  D
C1613      H1615   1.087       .  S
C1614      H1616   1.086       .  S
C1617      C1618   1.202       .  T
C1619      C1620   1.203       .  T
C1621      C1622   1.345       .  D
C1621      H1623   1.086       .  S
C1622      H1624   1.086       .  S
C1625      C1626   1.207       .  T
C1626      C1627   1.414       .  S
C1627      C1628   1.207       .  T
C1629      C1630   1.200       .  T
C1631      C1632   1.197       .  T
C1633      C1634   1.199       .  T
C1635      C1636   1.201       .  T
C1637      C1638   1.199       .  T
C1639      C1640   1.337       .  D
C1640      H1642   1.087       .  S
C1643      C1644   1.340       .  D
C1643      H1645   1.086       .  S
C1644      H1646   1.087       .  S
C1647      C1648   1.343       .  D
C1648      H1650   1.087   1_455  S
C1651      C1652   1.342       .  D
C1651      H1653   1.086       .  S
C1652      H1654   1.087       .  S
C1655      C1656   1.342       .  D
C1655      H1657   1.086       .  S
C1656      H1658   1.087       .  S
C1659      C1660   1.343       .  D
C1659      H1661   1.086       .  S
C1660      H1662   1.087       .  S
C1663      C1664   1.343       .  D
C1663      H1665   1.087       .  S
C1664      H1666   1.086       .  S
C1667      C1668   1.342       .  D
C1667      H1669   1.086       .  S
C1668      H1670   1.087       .  S
C1671      C1672   1.209       .  T
C1672      C1673   1.418       .  S
C1673      C1674   1.209       .  T
C1675      C1676   1.339       .  D
C1675      H1677   1.087       .  S
C1676      H1678   1.087       .  S
C1679      C1680   1.340       .  D
C1679      H1681   1.087       .  S
C1680      H1682   1.086       .  S
C1683      C1684   1.214       .  T
C1684      C1685   1.426       .  S
C1685      C1686   1.214       .  T
C1687      C1688   1.209       .  T
C1688      C1689   1.418       .  S
C1689      C1690   1.209       .  T
C1691      C1692   1.350       .  D
C1691      H1693   1.086       .  S
C1692      H1694   1.086       .  S
C1695      C1696   1.349       .  D
C1695      H1697   1.086       .  S
C1696      H1698   1.087       .  S
C1699      C1700   1.204       .  T
C1701      C1702   1.203       .  T
C1703      C1704   1.204       .  T
C1705      C1706   1.343       .  D
C1705      H1707   1.086       .  S
C1706      H1708   1.087       .  S
C1709      C1710   1.347       .  D
C1709      H1711   1.087       .  S
C1710      H1712   1.087       .  S
C1713      C1714   1.348       .  D
C1713      H1715   1.087       .  S
C1714      H1716   1.086       .  S
C1717      C1718   1.347       .  D
C1717      H1719   1.086       .  S
C1718      H1720   1.086       .  S
C1721      C1722   1.344       .  D
C1722      H1724   1.087       .  S
C1725      C1726   1.351       .  D
C1725      H1727   1.086       .  S
C1726      H1728   1.086       .  S
