geometry optimzed in LAMMPS
_audit_creation_date              2020-12-01 
_audit_creation_method            'lammps2cif' 
_symmetry_space_group_name_H-M    'P1' 
_symmetry_Int_Tables_number       1 
_symmetry_cell_setting            triclinic 
loop_ 
_symmetry_equiv_pos_as_xyz 
  x,y,z 
_cell_length_a                    39.84788841 
_cell_length_b                    40.482671666364595 
_cell_length_c                    28.67935364077079 
_cell_angle_alpha                 90.11976247759776 
_cell_angle_beta                  90.56034421793404 
_cell_angle_gamma                 90.02549049597405 
loop_ 
_atom_site_label 
_atom_site_type_symbol 
_atom_site_fract_x 
_atom_site_fract_y 
_atom_site_fract_z 
_atom_site_charge 
O1          O  0.22245855  0.21180491  0.46456729    -0.69900
O2          O  0.27664649  0.29003675  0.45960946    -0.70100
O3          O  0.28821075  0.22434343  0.46268696    -0.70000
O4          O  0.21067035  0.27739221  0.46074084    -0.70000
O5          O  0.21218472  0.28027977  0.04042951    -0.70000
O6          O  0.29256952  0.22742889  0.03954413    -0.70000
O7          O  0.27891620  0.29229083  0.03694486    -0.69900
O8          O  0.22593584  0.21544848  0.04400296    -0.70100
V9          V  0.24952435  0.25096470  0.46339904     1.35200
V10         V  0.25235361  0.25381655  0.03879469     1.35200
C11         C  0.21583635  0.20052442  0.00789458     0.79300
C12         C  0.28665487  0.30495062  0.99839245     0.79400
C13         C  0.30216762  0.21562157  0.50030606     0.79300
C14         C  0.19746413  0.28784505  0.49769714     0.79200
C15         C  0.19449627  0.06365923  0.04790584     0.88400
C16         C  0.15612540  0.06166710  0.04861158    -0.51900
C17         C  0.14077940  0.07086923  0.50240880     0.11300
C18         C  0.16721346  0.08368014  0.46758759     0.22200
C19         C  0.20414258  0.04449049  0.00400659    -0.52600
C20         C  0.19194779  0.05470153  0.46366435     0.11400
C21         C  0.20245495  0.09944020  0.03705540    -0.52100
C22         C  0.18665237  0.11085612  0.49459445     0.11900
H23         H  0.14258200  0.04951548  0.07622523     0.16500
H24         H  0.15652775  0.09173234  0.43354891     0.02200
H25         H  0.22217762  0.02396409  0.50824417     0.16800
H26         H  0.21948693  0.11400335  0.05862495     0.16600
C27         C  0.22176969  0.01601388  0.15816586    -0.09000
C28         C  0.24207015  0.49179902  0.10628062    -0.02900
C29         C  0.26370024  0.47057602  0.13024378    -0.09000
C30         C  0.26417258  0.47103658  0.17955037     0.12000
C31         C  0.24435796  0.49473936  0.20358940    -0.00800
C32         C  0.22452629  0.01797089  0.20721167     0.11800
C33         C  0.20722632  0.04220318  0.23252014    -0.10800
C34         C  0.21012439  0.04396196  0.28088972    -0.10800
C35         C  0.23077762  0.02183166  0.30559514     0.11800
C36         C  0.24556849  0.49633837  0.25305741    -0.00800
C37         C  0.28423510  0.44904043  0.20540004    -0.10900
C38         C  0.28473270  0.45002647  0.25404770    -0.10900
C39         C  0.26567010  0.47344695  0.27852362     0.12000
C40         C  0.26675202  0.47524527  0.32775608    -0.09000
C41         C  0.24786299  0.49954135  0.35042192    -0.02900
C42         C  0.23330759  0.02306698  0.35465260    -0.09000
H43         H  0.19121685  0.06001052  0.21512005     0.09200
H44         H  0.19600798  0.06288949  0.29879215     0.09200
H45         H  0.29969766  0.43083536  0.18817752     0.09400
H46         H  0.30059285  0.43254051  0.27236418     0.09400
H47         H  0.24028441  0.48977446  0.06858981     0.05900
H48         H  0.24852406  0.50071423  0.38821786     0.05900
C49         C  0.31335091  0.44364475  0.02181665     0.88400
C50         C  0.35132955  0.44462773  0.01701987    -0.51900
C51         C  0.36204797  0.43180096  0.47726956     0.11300
C52         C  0.33469878  0.41681701  0.44480604     0.22200
C53         C  0.30012440  0.46038347  0.97747058    -0.52600
C54         C  0.30998515  0.44561079  0.43736801     0.11400
C55         C  0.30379102  0.40739088  0.01596924    -0.52100
C56         C  0.31560358  0.39188548  0.47603251     0.11900
H57         H  0.36718202  0.45757797  0.04208852     0.16500
H58         H  0.34456319  0.40626202  0.41190119     0.02200
H59         H  0.28150507  0.47994130  0.47833056     0.16800
H60         H  0.28823087  0.39417128  0.04045924     0.16600
C61         C  0.05726667  0.31556965  0.46291579     0.88400
C62         C  0.09404819  0.30645256  0.47096605    -0.51900
C63         C  0.10787305  0.31907662  0.01514362     0.11300
C64         C  0.08153892  0.33708846  0.04567577     0.22200
C65         C  0.03933198  0.30314366  0.50649119    -0.52600
C66         C  0.05201669  0.31259234  0.04874431     0.11400
C67         C  0.05595529  0.35300672  0.46704359    -0.52100
C68         C  0.06764926  0.36526246  0.01422179     0.11900
H69         H  0.10799256  0.29060828  0.44763160     0.16500
H70         H  0.09112665  0.34555764  0.08016847     0.02200
H71         H  0.01896237  0.28564020  0.00285643     0.16800
H72         H  0.04337183  0.36812066  0.44097239     0.16600
C73         C  0.02845577  0.26448238  0.15723387    -0.09000
C74         C  0.50418820  0.24595895  0.13011734    -0.02900
C75         C  0.48269550  0.22462423  0.15388500    -0.09000
C76         C  0.48326558  0.22445167  0.20308423     0.12000
C77         C  0.50598895  0.24553433  0.22755881    -0.00800
C78         C  0.03054267  0.26389044  0.20648912     0.11800
C79         C  0.05224128  0.28521756  0.23108463    -0.10800
C80         C  0.05343884  0.28517338  0.27970396    -0.10800
C81         C  0.03315829  0.26363484  0.30545983     0.11800
C82         C  0.50694585  0.24515636  0.27708285    -0.00800
C83         C  0.46216346  0.20341073  0.22837997    -0.10900
C84         C  0.46323030  0.20291917  0.27694361    -0.10900
C85         C  0.48545406  0.22344894  0.30196055     0.12000
C86         C  0.48643127  0.22341034  0.35124740    -0.09000
C87         C  0.50887169  0.24438478  0.37448502    -0.02900
C88         C  0.03370296  0.26382009  0.35472420    -0.09000
H89         H  0.06824929  0.30242608  0.21291489     0.09200
H90         H  0.07032941  0.30230196  0.29700927     0.09200
H91         H  0.44469405  0.18701735  0.21074603     0.09400
H92         H  0.44628710  0.18639061  0.29471098     0.09400
H93         H  0.50353667  0.24588056  0.09229690     0.05900
H94         H  0.51077985  0.24318040  0.41222046     0.05900
C95         C  0.43962537  0.19381421  0.46115891     0.88400
C96         C  0.40350636  0.20177102  0.47306608    -0.51900
C97         C  0.39484147  0.18808877  0.01280346     0.11300
C98         C  0.41987468  0.16371942  0.03605217     0.22200
C99         C  0.45991785  0.20299841  0.50482795    -0.52600
C100        C  0.45197058  0.18417585  0.04457904     0.11400
C101        C  0.44131649  0.15602359  0.45939925    -0.52100
C102        C  0.42980898  0.13980071  0.99613882     0.11900
H103        H  0.38835151  0.21860488  0.45222145     0.16500
H104        H  0.41020576  0.15130946  0.06769625     0.02200
H105        H  0.48643470  0.21420962  0.00598483     0.16800
H106        H  0.45282343  0.14274555  0.43098762     0.16600
O107        O  0.47533213  0.04108644  0.06647445    -0.69900
O108        O  0.02972482  0.46722979  0.03865548    -0.70100
O109        O  0.04073856  0.02745526  0.06436633    -0.70000
O110        O  0.46421596  0.47207507  0.02860093    -0.70000
O111        O  0.46303929  0.47394929  0.45596588    -0.70000
O112        O  0.04128689  0.03169126  0.46576447    -0.70000
O113        O  0.03025813  0.46630827  0.45372703    -0.69900
O114        O  0.47531286  0.04054468  0.44371966    -0.70100
V115        V  0.50065982  0.50161202  0.02772187     1.35200
V116        V  0.00070989  0.50260758  0.45431147     1.35200
C117        C  0.46238176  0.05289092  0.47968821     0.79300
C118        C  0.03986394  0.45336058  0.49147274     0.79400
C119        C  0.05051466  0.03796750  0.50728270     0.79300
C120        C  0.45037333  0.46387345  0.49377533     0.79200
C121        C  0.44322156  0.08376093  0.47452627    -0.14600
C122        C  0.43279182  0.10344911  0.99917967    -0.29700
H123        H  0.44824059  0.10132433  0.06968301     0.14500
H124        H  0.44347261  0.09823867  0.54519471     0.15000
C125        C  0.46555551  0.20134090  0.38065170    -0.14600
C126        C  0.45176822  0.21345117  0.41987519    -0.29700
H127        H  0.46459810  0.17528397  0.37224096     0.14500
H128        H  0.45175418  0.24010256  0.42494077     0.15000
C129        C  0.45910471  0.20435635  0.12506045    -0.14600
C130        C  0.47101910  0.18719330  0.08872010    -0.29700
H131        H  0.43236071  0.20907751  0.12783237     0.14500
H132        H  0.49806774  0.18422244  0.08608742     0.15000
C133        C  0.06085225  0.39983590  0.02979318    -0.14600
C134        C  0.06098815  0.42363344  0.48865234    -0.29700
H135        H  0.05122261  0.40391310  0.06460811     0.14500
H136        H  0.07045113  0.41784864  0.45415891     0.15000
C137        C  0.03990761  0.30275529  0.41931591    -0.15400
C138        C  0.05452232  0.28650080  0.38378444    -0.29700
H139        H  0.01262195  0.30409572  0.41951074     0.14500
H140        H  0.08149035  0.28630227  0.37940950     0.15000
C141        C  0.03412249  0.30240474  0.09122322    -0.14600
C142        C  0.04890620  0.28691453  0.12739355    -0.29700
H143        H  0.00691855  0.30128287  0.08805891     0.14500
H144        H  0.07605231  0.28698806  0.13118501     0.15000
C145        C  0.39710302  0.43927589  0.46317531    -0.14600
C146        C  0.42101213  0.44189615  0.49632678    -0.29700
H147        H  0.40256980  0.44592330  0.92630912     0.14500
H148        H  0.41574444  0.43227875  0.53086561     0.15000
C149        C  0.28620053  0.45188223  0.35777318    -0.14600
C150        C  0.30453395  0.46387514  0.39350383    -0.29700
H151        H  0.28102880  0.42559281  0.35523657     0.14500
H152        H  0.30843645  0.49043679  0.39556273     0.15000
C153        C  0.28481345  0.44858499  0.10107906    -0.14600
C154        C  0.30132862  0.46177883  0.06470301    -0.29700
H155        H  0.28346345  0.42215159  0.10647339     0.14500
H156        H  0.30390937  0.48853399  0.06345348     0.15000
C157        C  0.08170312  0.05596763  0.51885055    -0.14600
C158        C  0.10575792  0.06266616  0.48770730    -0.29700
H159        H  0.09009312  0.06723662  0.06782994     0.14500
H160        H  0.10077827  0.05898020  0.45076587     0.15000
C161        C  0.19810037  0.03465979  0.42177690    -0.14600
C162        C  0.21380700  0.04639524  0.38411041    -0.29700
H163        H  0.19673924  0.00803270  0.42651230     0.14500
H164        H  0.21647913  0.07283315  0.37890524     0.15000
C165        C  0.20100067  0.03866436  0.12915720    -0.14600
C166        C  0.21398683  0.05094270  0.08957224    -0.29700
H167        H  0.17484595  0.04196611  0.13790631     0.14500
H168        H  0.24096346  0.04896162  0.08460837     0.15000
C169        C  0.19298298  0.14502250  0.47785750    -0.14600
C170        C  0.19445704  0.16968115  0.50932172    -0.29700
H171        H  0.20061034  0.14886488  0.44204382     0.14500
H172        H  0.19057391  0.16396860  0.05008210     0.15000
C173        C  0.16688874  0.30742436  0.99787050    -0.14600
C174        C  0.14275975  0.31017333  0.03024757    -0.29700
H175        H  0.16150904  0.31634340  0.96287510     0.14500
H176        H  0.14798625  0.30356600  0.56208753     0.15000
C177        C  0.33591414  0.19903085  0.99598156    -0.14600
C178        C  0.36011759  0.19544908  0.02864585    -0.29700
H179        H  0.34152391  0.19151410  0.96045337     0.14500
H180        H  0.35346516  0.20173495  0.56464769     0.15000
C181        C  0.30616223  0.33448204  0.49884969    -0.14600
C182        C  0.30811260  0.35676028  0.46413814    -0.29700
H183        H  0.31510420  0.34335692  0.03367335     0.14500
H184        H  0.30026121  0.35047875  0.42887902     0.15000
O185        O  0.22337962  0.21220466  0.96839363    -0.69900
O186        O  0.27662267  0.29096118  0.96121710    -0.70100
O187        O  0.28906296  0.22552155  0.96392951    -0.70000
O188        O  0.21091485  0.27767394  0.96475197    -0.70000
O189        O  0.21116034  0.28049209  0.53640626    -0.70000
O190        O  0.28978085  0.22549245  0.53844280    -0.70000
O191        O  0.27825361  0.29080476  0.53536996    -0.69900
O192        O  0.22285927  0.21543240  0.54019785    -0.70100
V193        V  0.25002803  0.25161926  0.96608985     1.35200
V194        V  0.25051102  0.25304846  0.53615563     1.35200
C195        C  0.21362266  0.20043464  0.50370893     0.79300
C196        C  0.28660299  0.30360269  0.49713438     0.79400
C197        C  0.30437850  0.21771132  0.00093384     0.79300
C198        C  0.19804109  0.28786657  0.00207526     0.79200
C199        C  0.19270935  0.06434800  0.54736474     0.88400
C200        C  0.15432962  0.06114640  0.54457965    -0.51900
C201        C  0.14076900  0.07252386  0.00833167     0.11300
C202        C  0.16572343  0.08511795  0.97134130     0.22200
C203        C  0.20507626  0.04481294  0.50524672    -0.52600
C204        C  0.18928897  0.05546690  0.96399670     0.11400
C205        C  0.20001120  0.10022747  0.53603005    -0.52100
C206        C  0.18734724  0.11124204  0.99740551     0.11900
H207        H  0.13975400  0.04945154  0.57155151     0.16500
H208        H  0.15354556  0.09409305  0.93875633     0.02200
H209        H  0.22045307  0.02295719  0.00478969     0.16800
H210        H  0.21558013  0.11566737  0.55849569     0.16600
C211        C  0.21970171  0.01641072  0.65692938    -0.09000
C212        C  0.23892619  0.48896524  0.60597056    -0.02900
C213        C  0.26077510  0.46787468  0.62978736    -0.09000
C214        C  0.26182251  0.46853298  0.67900332     0.12000
C215        C  0.24209727  0.49215620  0.70321417    -0.00800
C216        C  0.22112768  0.01754940  0.70609703     0.11800
C217        C  0.20298859  0.04127662  0.73126240    -0.10800
C218        C  0.20490991  0.04257589  0.77976983    -0.10800
C219        C  0.22483645  0.02003896  0.80485077     0.11800
C220        C  0.24382995  0.49385804  0.75263766    -0.00800
C221        C  0.28245897  0.44684084  0.70454048    -0.10900
C222        C  0.28368897  0.44810382  0.75314163    -0.10900
C223        C  0.26466683  0.47139253  0.77785234     0.12000
C224        C  0.26649499  0.47354233  0.82703880    -0.09000
C225        C  0.24714926  0.49735290  0.84985523    -0.02900
C226        C  0.22624913  0.02072826  0.85407722    -0.09000
H227        H  0.18732009  0.05923655  0.71356082     0.09200
H228        H  0.19042035  0.06130280  0.79752925     0.09200
H229        H  0.29787337  0.42870119  0.68709848     0.09400
H230        H  0.30001788  0.43091065  0.77121829     0.09400
H231        H  0.23697613  0.48688206  0.56829615     0.05900
H232        H  0.24824982  0.49869901  0.88762074     0.05900
C233        C  0.31157539  0.44219034  0.52215023     0.88400
C234        C  0.34950207  0.44462739  0.51782398    -0.51900
C235        C  0.36308234  0.43123591  0.97632704     0.11300
C236        C  0.33501445  0.41726935  0.94422039     0.22200
C237        C  0.29793169  0.45849490  0.47777464    -0.52600
C238        C  0.31137679  0.44690648  0.93694591     0.11400
C239        C  0.30345502  0.40563160  0.51619217    -0.52100
C240        C  0.31524255  0.39315947  0.97572206     0.11900
H241        H  0.36465886  0.45814984  0.54311728     0.16500
H242        H  0.34429446  0.40627329  0.91126330     0.02200
H243        H  0.28427046  0.48223808  0.97810071     0.16800
H244        H  0.28811819  0.39188936  0.54037251     0.16600
C245        C  0.05830091  0.31715901  0.96458225     0.88400
C246        C  0.09525125  0.30872087  0.97283904    -0.51900
C247        C  0.10751269  0.31836724  0.51187723     0.11300
C248        C  0.08219465  0.33825139  0.54156412     0.22200
C249        C  0.04019062  0.30239234  0.00643891    -0.52600
C250        C  0.05206118  0.31488690  0.54755593     0.11400
C251        C  0.05587700  0.35430750  0.97180901    -0.52100
C252        C  0.06865725  0.36531360  0.50820103     0.11900
H253        H  0.10982607  0.29416712  0.94864254     0.16500
H254        H  0.09254485  0.34795198  0.57498210     0.02200
H255        H  0.01745695  0.28708486  0.50491933     0.16800
H256        H  0.04331533  0.37017153  0.94662335     0.16600
C257        C  0.02683650  0.27112525  0.65812693    -0.09000
C258        C  0.50589878  0.24669272  0.63087241    -0.02900
C259        C  0.48426869  0.22556916  0.65473448    -0.09000
C260        C  0.48559624  0.22488804  0.70395157     0.12000
C261        C  0.50933393  0.24506823  0.72817611    -0.00800
C262        C  0.02938255  0.26994226  0.70736408     0.11800
C263        C  0.05183283  0.29042895  0.73208405    -0.10800
C264        C  0.05365359  0.28953404  0.78070080    -0.10800
C265        C  0.03338974  0.26782350  0.80625677     0.11800
C266        C  0.51100362  0.24425462  0.77767486    -0.00800
C267        C  0.46423103  0.20428805  0.72950644    -0.10900
C268        C  0.46595015  0.20341031  0.77803972    -0.10900
C269        C  0.48917380  0.22303782  0.80280108     0.12000
C270        C  0.49077788  0.22262485  0.85208452    -0.09000
C271        C  0.51404548  0.24288394  0.87506263    -0.02900
C272        C  0.03476979  0.26690051  0.85547533    -0.09000
H273        H  0.06794303  0.30760114  0.71400518     0.09200
H274        H  0.07113222  0.30600127  0.79817736     0.09200
H275        H  0.44600788  0.18857704  0.71210970     0.09400
H276        H  0.44868386  0.18731252  0.79597764     0.09400
H277        H  0.50452343  0.24736124  0.59309095     0.05900
H278        H  0.51625594  0.24158603  0.91276038     0.05900
C279        C  0.44286384  0.19299784  0.96148648     0.88400
C280        C  0.40744512  0.20339426  0.97421511    -0.51900
C281        C  0.39212608  0.18698457  0.51272599     0.11300
C282        C  0.41891518  0.16533866  0.53754484     0.22200
C283        C  0.46382482  0.19914516  0.00560488    -0.52600
C284        C  0.44939135  0.18822631  0.54470372     0.11400
C285        C  0.44119370  0.15531738  0.95702779    -0.52100
C286        C  0.43086946  0.14082021  0.49961025     0.11900
H287        H  0.39353324  0.22178292  0.95437613     0.16500
H288        H  0.41027834  0.15330581  0.57006575     0.02200
H289        H  0.48177169  0.21908553  0.50398285     0.16800
H290        H  0.45009262  0.14157333  0.92713187     0.16600
O291        O  0.46758163  0.03889009  0.51859081    -0.69900
O292        O  0.02956459  0.46556546  0.52948713    -0.70100
O293        O  0.03308526  0.02692879  0.54024727    -0.70000
O294        O  0.46278332  0.47402939  0.53174241    -0.70000
O295        O  0.46438073  0.47077077  0.95283361    -0.70000
O296        O  0.03759163  0.03469672  0.98937724    -0.70000
O297        O  0.03039381  0.46744606  0.96290953    -0.69900
O298        O  0.46986062  0.04504295  0.99127946    -0.70100
V299        V  0.49972402  0.50300165  0.53198339     1.35200
V300        V  0.00152169  0.50432912  0.96285037     1.35200
C301        C  0.46367752  0.05634760  0.03143167     0.79300
C302        C  0.03964115  0.45441816  0.00079812     0.79400
C303        C  0.05226460  0.04042303  0.02797321     0.79300
C304        C  0.45183623  0.46125001  0.99099726     0.79200
C305        C  0.44578466  0.08817992  0.03677170    -0.14600
C306        C  0.43819995  0.10538793  0.50939330    -0.29700
H307        H  0.43704650  0.09080992  0.43897245     0.14500
H308        H  0.43157889  0.09006179  0.96629598     0.15000
C309        C  0.46952074  0.20094044  0.88156022    -0.14600
C310        C  0.45653996  0.21290652  0.92141464    -0.29700
H311        H  0.46720288  0.17512777  0.87221054     0.14500
H312        H  0.45810679  0.23936988  0.92780496     0.15000
C313        C  0.45963680  0.20637096  0.62598563    -0.14600
C314        C  0.47023115  0.19098276  0.58730976    -0.29700
H315        H  0.43299896  0.21021653  0.63155952     0.14500
H316        H  0.49713312  0.18848491  0.58224315     0.15000
C317        C  0.06257078  0.40027541  0.52181850    -0.14600
C318        C  0.06036220  0.42426521  0.99799349    -0.29700
H319        H  0.05403777  0.40543694  0.55692064     0.14500
H320        H  0.07082816  0.41929779  0.96382242     0.15000
C321        C  0.04152554  0.30570419  0.91979967    -0.15400
C322        C  0.05609590  0.28893629  0.88475477    -0.29700
H323        H  0.01430675  0.30805566  0.91899154     0.14500
H324        H  0.08308975  0.28723480  0.88153147     0.15000
C325        C  0.03414307  0.30801428  0.59132049    -0.14600
C326        C  0.04824859  0.29246467  0.62799861    -0.29700
H327        H  0.00689704  0.30864592  0.58876136     0.14500
H328        H  0.07537292  0.29080345  0.63123890     0.15000
C329        C  0.39821671  0.43732692  0.96156786    -0.14600
C330        C  0.42250770  0.43934441  0.99420898    -0.29700
H331        H  0.40157783  0.44796413  0.42799460     0.14500
H332        H  0.41736722  0.42994881  0.02890942     0.15000
C333        C  0.28731586  0.45125102  0.85703357    -0.14600
C334        C  0.30509073  0.46437403  0.89259921    -0.29700
H335        H  0.28336052  0.42474196  0.85495786     0.14500
H336        H  0.30782326  0.49109426  0.89408001     0.15000
C337        C  0.28206687  0.44622304  0.60058754    -0.14600
C338        C  0.29874431  0.45987827  0.56479300    -0.29700
H339        H  0.28090750  0.41975336  0.60566517     0.14500
H340        H  0.30096518  0.48667685  0.56389411     0.15000
C341        C  0.08296869  0.06039083  0.03247710    -0.14600
C342        C  0.10487399  0.06507133  0.99778457    -0.29700
H343        H  0.08633419  0.06067505  0.55561174     0.14500
H344        H  0.09781468  0.05914555  0.96207802     0.15000
C345        C  0.19184320  0.03534800  0.92123688    -0.14600
C346        C  0.20835505  0.04555294  0.88328514    -0.29700
H347        H  0.18787990  0.00896255  0.92573468     0.14500
H348        H  0.21369642  0.07161900  0.87834391     0.15000
C349        C  0.19792900  0.03817706  0.62796430    -0.14600
C350        C  0.21128731  0.05298229  0.59054749    -0.29700
H351        H  0.17115652  0.03815343  0.63409290     0.14500
H352        H  0.23852908  0.05358604  0.58797494     0.15000
C353        C  0.19344992  0.14572667  0.98177911    -0.14600
C354        C  0.19722964  0.16951264  0.01425288    -0.29700
H355        H  0.19873887  0.15048353  0.94535358     0.14500
H356        H  0.18576678  0.16491666  0.54450539     0.15000
C357        C  0.16615009  0.30694884  0.49305339    -0.14600
C358        C  0.14263052  0.31019473  0.52612979    -0.29700
H359        H  0.16005921  0.31481206  0.45775463     0.14500
H360        H  0.14737457  0.30251948  0.06598131     0.15000
C361        C  0.33277597  0.19544432  0.49675395    -0.14600
C362        C  0.35740370  0.19355838  0.52905641    -0.29700
H363        H  0.33796228  0.18628211  0.46186450     0.14500
H364        H  0.35564809  0.20151190  0.06493497     0.15000
C365        C  0.30571071  0.33608600  0.99943936    -0.14600
C366        C  0.30724032  0.35809458  0.96441050    -0.29700
H367        H  0.31530139  0.34147181  0.53332638     0.14500
H368        H  0.29917681  0.35155837  0.92933284     0.15000
O369        O  0.22131062  0.71534813  0.46115073    -0.69900
O370        O  0.27428672  0.79434488  0.47219996    -0.70100
O371        O  0.28682355  0.72868469  0.46806119    -0.70000
O372        O  0.20873305  0.78089316  0.46466953    -0.70000
O373        O  0.20624853  0.77580336  0.03606436    -0.70000
O374        O  0.28619856  0.72294864  0.03720721    -0.70000
O375        O  0.27252221  0.78785269  0.04414607    -0.69900
O376        O  0.21965648  0.71121647  0.02998896    -0.70100
V377        V  0.24776588  0.75479104  0.46800653     1.35200
V378        V  0.24625650  0.74953325  0.03539166     1.35200
C379        C  0.21212068  0.69967824  0.99038770     0.79300
C380        C  0.28268429  0.80394836  0.00944341     0.79400
C381        C  0.29923267  0.71823635  0.50584408     0.79300
C382        C  0.19316745  0.78819592  0.50130451     0.79200
C383        C  0.19523459  0.56308218  0.01851744     0.88400
C384        C  0.15679137  0.56180117  0.01911319    -0.51900
C385        C  0.14007096  0.57207316  0.47811981     0.11300
C386        C  0.16557943  0.58653581  0.44326394     0.22200
C387        C  0.20458750  0.54376715  0.97469126    -0.52600
C388        C  0.18950089  0.55734862  0.43410864     0.11400
C389        C  0.20383258  0.59872797  0.00774886    -0.52100
C390        C  0.18647141  0.61168684  0.47252300     0.11900
H391        H  0.14285639  0.54999380  0.04665586     0.16500
H392        H  0.15386751  0.59687768  0.41117079     0.02200
H393        H  0.21993539  0.52313806  0.47312284     0.16800
H394        H  0.22048182  0.61335116  0.02983843     0.16600
C395        C  0.22271970  0.51548220  0.12902255    -0.09000
C396        C  0.23903578  0.99124380  0.13458518    -0.02900
C397        C  0.26100108  0.96966809  0.15727732    -0.09000
C398        C  0.26398144  0.97095584  0.20640130     0.12000
C399        C  0.24567057  0.99528340  0.23145008    -0.00800
C400        C  0.22373452  0.51721869  0.17820146     0.11800
C401        C  0.20532116  0.54117441  0.20255882    -0.10800
C402        C  0.20697285  0.54311727  0.25103892    -0.10800
C403        C  0.22686102  0.52099832  0.27690427     0.11800
C404        C  0.24892182  0.99730147  0.28072182    -0.00800
C405        C  0.28510034  0.94918914  0.23101783    -0.10900
C406        C  0.28803043  0.95094446  0.27950816    -0.10900
C407        C  0.27018402  0.97472594  0.30500986     0.12000
C408        C  0.27346809  0.97714085  0.35406557    -0.09000
C409        C  0.25492827  0.00117222  0.37770106    -0.02900
C410        C  0.22813751  0.52244075  0.32608304    -0.09000
H411        H  0.18969285  0.55887134  0.18429053     0.09200
H412        H  0.19233486  0.56202756  0.26817571     0.09200
H413        H  0.29953958  0.93059152  0.21292624     0.09400
H414        H  0.30465441  0.93366358  0.29688266     0.09400
H415        H  0.23572401  0.98897886  0.09709405     0.05900
H416        H  0.25687828  0.00252413  0.41541053     0.05900
C417        C  0.30999216  0.94313689  0.04789611     0.88400
C418        C  0.34792510  0.94567278  0.04538086    -0.51900
C419        C  0.36418861  0.93030500  0.50944048     0.11300
C420        C  0.33780042  0.91818652  0.47325313     0.22200
C421        C  0.29733153  0.95960645  0.00299645    -0.52600
C422        C  0.31628643  0.94903598  0.46376847     0.11400
C423        C  0.30203724  0.90651281  0.04130664    -0.52100
C424        C  0.31459755  0.89478362  0.50116778     0.11900
H425        H  0.36227804  0.95935011  0.07139105     0.16500
H426        H  0.34873928  0.90706509  0.44139935     0.02200
H427        H  0.28814674  0.98518291  0.50208949     0.16800
H428        H  0.28582569  0.89291797  0.06454044     0.16600
C429        C  0.05326406  0.81232779  0.46458591     0.88400
C430        C  0.09010047  0.80397954  0.47343372    -0.51900
C431        C  0.10485208  0.81652266  0.01360559     0.11300
C432        C  0.07989389  0.83471615  0.04561865     0.22200
C433        C  0.03518938  0.79999944  0.50815074    -0.52600
C434        C  0.05031424  0.81062411  0.05062441     0.11400
C435        C  0.05117441  0.84978351  0.46796657    -0.52100
C436        C  0.06548811  0.86297953  0.01510371     0.11900
H437        H  0.10460606  0.78814383  0.45075337     0.16500
H438        H  0.09074256  0.84306109  0.07947159     0.02200
H439        H  0.01549297  0.78394253  0.00692834     0.16800
H440        H  0.03856984  0.86445046  0.44141208     0.16600
C441        C  0.03152682  0.76051036  0.15825338    -0.09000
C442        C  0.49583245  0.74715391  0.13909726    -0.02900
C443        C  0.47484419  0.72525908  0.16268695    -0.09000
C444        C  0.47689155  0.72323647  0.21167664     0.12000
C445        C  0.50065183  0.74311736  0.23618241    -0.00800
C446        C  0.03298995  0.75964298  0.20752710     0.11800
C447        C  0.05433155  0.78083460  0.23291826    -0.10800
C448        C  0.05461034  0.78071572  0.28157717    -0.10800
C449        C  0.03364176  0.75931651  0.30654213     0.11800
C450        C  0.50321314  0.74078825  0.28549072    -0.00800
C451        C  0.45628222  0.70150647  0.23664922    -0.10900
C452        C  0.45881356  0.69921578  0.28502571    -0.10900
C453        C  0.48213264  0.71848530  0.31006848     0.12000
C454        C  0.48459641  0.71671060  0.35918115    -0.09000
C455        C  0.50833598  0.73617834  0.38244007    -0.02900
C456        C  0.03286833  0.75976154  0.35579710    -0.09000
H457        H  0.07076252  0.79795248  0.21529626     0.09200
H458        H  0.07123308  0.79776830  0.29952277     0.09200
H459        H  0.43802809  0.68602610  0.21888936     0.09400
H460        H  0.44226729  0.68222160  0.30266521     0.09400
H461        H  0.49422274  0.74801931  0.10134008     0.05900
H462        H  0.51105103  0.73384436  0.41999846     0.05900
C463        C  0.43658908  0.69116575  0.46966048     0.88400
C464        C  0.40069803  0.70044331  0.48057330    -0.51900
C465        C  0.38965016  0.68444131  0.01602574     0.11300
C466        C  0.41493853  0.66243176  0.04321301     0.22200
C467        C  0.45686437  0.70133447  0.51289256    -0.52600
C468        C  0.44523344  0.68497568  0.05333060     0.11400
C469        C  0.43735164  0.65335500  0.47044647    -0.52100
C470        C  0.42857946  0.63785152  0.00651987     0.11900
H471        H  0.38627440  0.71708272  0.45846222     0.16500
H472        H  0.40458011  0.65045262  0.07476978     0.02200
H473        H  0.47992285  0.71563745  0.01613303     0.16800
H474        H  0.44900364  0.63888904  0.44326912     0.16600
O475        O  0.47053714  0.53860269  0.02682197    -0.69900
O476        O  0.03014520  0.96197268  0.05311601    -0.70100
O477        O  0.03963099  0.53332950  0.03693006    -0.70000
O478        O  0.46505694  0.97526426  0.05937667    -0.70000
O479        O  0.46354829  0.97562271  0.43728964    -0.70000
O480        O  0.03870217  0.53182403  0.45512413    -0.70000
O481        O  0.03007370  0.96706256  0.45483247    -0.69900
O482        O  0.47032432  0.53978118  0.45742281    -0.70100
V483        V  0.50291701  0.00312900  0.05691119     1.35200
V484        V  0.00241191  0.00472587  0.45546739     1.35200
C485        C  0.46009791  0.55260776  0.49472905     0.79300
C486        C  0.03563167  0.95131962  0.49193006     0.79400
C487        C  0.05054345  0.54127271  0.49417415     0.79300
C488        C  0.44675938  0.96551492  0.47176234     0.79200
C489        C  0.43841771  0.58199877  0.49085999    -0.14600
C490        C  0.43619803  0.60262804  0.01729446    -0.29700
H491        H  0.43387426  0.58728143  0.94743764     0.14500
H492        H  0.44340199  0.59992558  0.55973224     0.15000
C493        C  0.46283072  0.69569197  0.38879892    -0.14600
C494        C  0.44935916  0.70916939  0.42734698    -0.29700
H495        H  0.46114780  0.66949103  0.38148550     0.14500
H496        H  0.45022894  0.73593044  0.43104384     0.15000
C497        C  0.45116984  0.70538537  0.13370437    -0.14600
C498        C  0.46344729  0.68790506  0.09800986    -0.29700
H499        H  0.42452145  0.71085215  0.13540352     0.14500
H500        H  0.49048855  0.68443408  0.09637113     0.15000
C501        C  0.06006127  0.89728032  0.03226371    -0.14600
C502        C  0.05525047  0.92068409  0.48868059    -0.29700
H503        H  0.05499193  0.90095309  0.06904337     0.14500
H504        H  0.06471664  0.91475503  0.45423451     0.15000
C505        C  0.03685030  0.79871236  0.42080256    -0.15400
C506        C  0.05251696  0.78291462  0.38567268    -0.29700
H507        H  0.00953614  0.79917206  0.42035673     0.14500
H508        H  0.07952108  0.78373027  0.38189009     0.15000
C509        C  0.03439547  0.80025080  0.09448698    -0.14600
C510        C  0.05075764  0.78421927  0.12891720    -0.29700
H511        H  0.00712712  0.79885865  0.09345207     0.14500
H512        H  0.07799659  0.78421287  0.13058816     0.15000
C513        C  0.40087906  0.93251935  0.50307187    -0.14600
C514        C  0.41469558  0.94726874  0.46588388    -0.29700
H515        H  0.40175228  0.94871120  0.95686394     0.14500
H516        H  0.40010696  0.95084547  0.43410150     0.15000
C517        C  0.29388624  0.95404380  0.38334168    -0.14600
C518        C  0.31253079  0.96628900  0.41870187    -0.29700
H519        H  0.28819375  0.92781845  0.38185060     0.14500
H520        H  0.31683188  0.99281489  0.41983083     0.15000
C521        C  0.28091178  0.94750291  0.12682252    -0.14600
C522        C  0.29662345  0.96094737  0.09005608    -0.29700
H523        H  0.28011798  0.92103984  0.13230791     0.14500
H524        H  0.29872003  0.98775387  0.08874478     0.15000
C525        C  0.08150210  0.56094045  0.49942075    -0.14600
C526        C  0.10439560  0.56484215  0.46580443    -0.29700
H527        H  0.09061356  0.57090529  0.03733637     0.14500
H528        H  0.09821802  0.55863597  0.42987598     0.15000
C529        C  0.19165538  0.53811066  0.39044875    -0.14600
C530        C  0.21036066  0.54785234  0.35432139    -0.29700
H531        H  0.18587340  0.51193967  0.39346903     0.14500
H532        H  0.21780966  0.57354636  0.35103342     0.15000
C533        C  0.20148959  0.53717700  0.09919590    -0.14600
C534        C  0.21456120  0.55011891  0.06012945    -0.29700
H535        H  0.17512431  0.53955777  0.10728485     0.14500
H536        H  0.24162479  0.54886333  0.05564456     0.15000
C537        C  0.19190030  0.64730418  0.46162614    -0.14600
C538        C  0.19314488  0.66906558  0.49727847    -0.29700
H539        H  0.19910208  0.65445955  0.42667657     0.14500
H540        H  0.18185270  0.66152213  0.02205999     0.15000
C541        C  0.16318980  0.80527946  0.99343238    -0.14600
C542        C  0.13991021  0.80780970  0.02682912    -0.29700
H543        H  0.15715268  0.81407942  0.95856154     0.14500
H544        H  0.14312495  0.80233553  0.56496186     0.15000
C545        C  0.33148093  0.69659072  0.99533107    -0.14600
C546        C  0.35435344  0.69167771  0.02948666    -0.29700
H547        H  0.33812073  0.68985231  0.95986920     0.14500
H548        H  0.34934168  0.70281107  0.57174421     0.15000
C549        C  0.29873978  0.83773430  0.51987769    -0.14600
C550        C  0.30551900  0.86040757  0.48696649    -0.29700
H551        H  0.30567554  0.84073262  0.05490318     0.14500
H552        H  0.30231234  0.85459485  0.45022615     0.15000
O553        O  0.22254606  0.71459375  0.95450925    -0.69900
O554        O  0.27577311  0.79312563  0.96893604    -0.70100
O555        O  0.28818530  0.72761383  0.96180564    -0.70000
O556        O  0.21016728  0.77995889  0.96076138    -0.70000
O557        O  0.20458769  0.77800534  0.54007010    -0.70000
O558        O  0.28504715  0.72600426  0.54367655    -0.70000
O559        O  0.27066200  0.79091337  0.54758806    -0.69900
O560        O  0.21874404  0.71327502  0.53673901    -0.70100
V561        V  0.24916140  0.75375354  0.96298493     1.35200
V562        V  0.24483727  0.75211517  0.54055765     1.35200
C563        C  0.21137951  0.70079615  0.49760385     0.79300
C564        C  0.28094017  0.80619168  0.51220475     0.79400
C565        C  0.30053016  0.71622764  0.99906987     0.79300
C566        C  0.19469619  0.78662967  0.99770152     0.79200
C567        C  0.19319967  0.56187754  0.51871128     0.88400
C568        C  0.15477545  0.55957327  0.51792038    -0.51900
C569        C  0.14173721  0.57289123  0.97873089     0.11300
C570        C  0.16695692  0.58510334  0.94189232     0.22200
C571        C  0.20378076  0.54478468  0.47358150    -0.52600
C572        C  0.18992077  0.55499189  0.93470211     0.11400
C573        C  0.20104016  0.59811892  0.51136245    -0.52100
C574        C  0.18897411  0.61081807  0.96816176     0.11900
H575        H  0.14071544  0.54625283  0.54397781     0.16500
H576        H  0.15496351  0.59433070  0.90931535     0.02200
H577        H  0.22044932  0.52191066  0.97552157     0.16800
H578        H  0.21733767  0.61189032  0.53498778     0.16600
C579        C  0.21983996  0.51280027  0.62879001    -0.09000
C580        C  0.23918730  0.99328124  0.63318552    -0.02900
C581        C  0.26078824  0.97151196  0.65627170    -0.09000
C582        C  0.26143742  0.97124208  0.70566506     0.12000
C583        C  0.24188331  0.99471799  0.73061053    -0.00800
C584        C  0.22115836  0.51453246  0.67801692     0.11800
C585        C  0.20277568  0.53835846  0.70261981    -0.10800
C586        C  0.20465509  0.54018921  0.75109715    -0.10800
C587        C  0.22497955  0.51826645  0.77668678     0.11800
C588        C  0.24343384  0.99570308  0.78012545    -0.00800
C589        C  0.28147772  0.94877956  0.73076796    -0.10900
C590        C  0.28244670  0.94927315  0.77945892    -0.10900
C591        C  0.26380531  0.97257443  0.80476493     0.12000
C592        C  0.26556079  0.97408315  0.85401285    -0.09000
C593        C  0.24648837  0.99779586  0.87749076    -0.02900
C594        C  0.22660005  0.51969040  0.82580320    -0.09000
H595        H  0.18690860  0.55595665  0.68456104     0.09200
H596        H  0.18991163  0.55892418  0.76843151     0.09200
H597        H  0.29665703  0.93064850  0.71292041     0.09400
H598        H  0.29831844  0.93148965  0.79716848     0.09400
H599        H  0.23736440  0.99204662  0.59543369     0.05900
H600        H  0.24767016  0.99861994  0.91528303     0.05900
C601        C  0.31239652  0.94486681  0.54842957     0.88400
C602        C  0.35061454  0.94368452  0.54872578    -0.51900
C603        C  0.36150286  0.93317492  0.00537801     0.11300
C604        C  0.33498490  0.91821303  0.97151965     0.22200
C605        C  0.30313749  0.96275070  0.50301278    -0.52600
C606        C  0.31033100  0.94681791  0.96309402     0.11400
C607        C  0.30122364  0.90918186  0.54021576    -0.52100
C608        C  0.31501657  0.89308964  0.00129775     0.11900
H609        H  0.36579188  0.95430820  0.57666242     0.16500
H610        H  0.34566534  0.90788187  0.93897257     0.02200
H611        H  0.28060303  0.98082750  0.00288098     0.16800
H612        H  0.28320209  0.89673774  0.56214053     0.16600
C613        C  0.05388465  0.81503283  0.96602904     0.88400
C614        C  0.09094386  0.80617907  0.97214745    -0.51900
C615        C  0.10293552  0.81656783  0.51425088     0.11300
C616        C  0.07711804  0.83623875  0.54312968     0.22200
C617        C  0.03691896  0.80054507  0.00909903    -0.52600
C618        C  0.04744940  0.81242283  0.54912554     0.11400
C619        C  0.05215012  0.85229301  0.97337075    -0.52100
C620        C  0.06332514  0.86265694  0.50910360     0.11900
H621        H  0.10473526  0.79146415  0.94726091     0.16500
H622        H  0.08706161  0.84644156  0.57649024     0.02200
H623        H  0.01367826  0.78347670  0.50663547     0.16800
H624        H  0.03899655  0.86830229  0.94899791     0.16600
C625        C  0.02309183  0.76814002  0.65898413    -0.09000
C626        C  0.49875697  0.74965286  0.63999958    -0.02900
C627        C  0.47800463  0.72759781  0.66371927    -0.09000
C628        C  0.47997845  0.72611270  0.71283561     0.12000
C629        C  0.50332106  0.74667214  0.73710242    -0.00800
C630        C  0.02538050  0.76687593  0.70817957     0.11800
C631        C  0.04784627  0.78719129  0.73316306    -0.10800
C632        C  0.04903849  0.78662910  0.78180441    -0.10800
C633        C  0.02805715  0.76548101  0.80715176     0.11800
C634        C  0.50574600  0.74503896  0.78644942    -0.00800
C635        C  0.45977194  0.70428020  0.73821209    -0.10900
C636        C  0.46239281  0.70245148  0.78663564    -0.10900
C637        C  0.48528780  0.72243374  0.81139725     0.12000
C638        C  0.48787984  0.72106340  0.86055383    -0.09000
C639        C  0.51059012  0.74188482  0.88357152    -0.02900
C640        C  0.02833318  0.76537702  0.85647042    -0.09000
H641        H  0.06438847  0.80405594  0.71526573     0.09200
H642        H  0.06644122  0.80308228  0.79944152     0.09200
H643        H  0.44184644  0.68827939  0.72074493     0.09400
H644        H  0.44613814  0.68531876  0.80450358     0.09400
H645        H  0.49712095  0.75060534  0.60225031     0.05900
H646        H  0.51336211  0.74012247  0.92117783     0.05900
C647        C  0.43974313  0.69082510  0.96926242     0.88400
C648        C  0.40324051  0.69922940  0.97776231    -0.51900
C649        C  0.38860985  0.68724844  0.52092897     0.11300
C650        C  0.41476452  0.66584135  0.54763159     0.22200
C651        C  0.45796798  0.69967732  0.01472916    -0.52600
C652        C  0.44572656  0.68823750  0.55359336     0.11400
C653        C  0.44107428  0.65299529  0.96741288    -0.52100
C654        C  0.42655737  0.63977127  0.51165295     0.11900
H655        H  0.38958196  0.71658237  0.95582580     0.16500
H656        H  0.40563567  0.65513573  0.58080491     0.02200
H657        H  0.47902815  0.71696755  0.51125149     0.16800
H658        H  0.45404183  0.63959145  0.94030488     0.16600
O659        O  0.47003809  0.54041153  0.53318381    -0.69900
O660        O  0.02258598  0.96163605  0.52939129    -0.70100
O661        O  0.03625872  0.53181454  0.53078760    -0.70000
O662        O  0.45682590  0.97321743  0.51224411    -0.70000
O663        O  0.45958494  0.97933336  0.98413525    -0.70000
O664        O  0.03988197  0.53291270  0.96115454    -0.70000
O665        O  0.02699326  0.96972585  0.97823753    -0.69900
O666        O  0.47167114  0.53673116  0.95112208    -0.70100
V667        V  0.49513315  0.00012749  0.52049406     1.35200
V668        V  0.99896570  0.00646543  0.98869734     1.35200
C669        C  0.46133018  0.55039483  0.98778576     0.79300
C670        C  0.03760209  0.95284999  0.01218411     0.79400
C671        C  0.05283405  0.54254588  0.99939522     0.79300
C672        C  0.44954082  0.96750730  0.02242350     0.79200
C673        C  0.44096185  0.58061698  0.98286136    -0.14600
C674        C  0.43510182  0.60503033  0.52429545    -0.29700
H675        H  0.42911941  0.58742398  0.45596255     0.14500
H676        H  0.44218316  0.59611529  0.05312929     0.15000
C677        C  0.46751092  0.69863528  0.89005252    -0.14600
C678        C  0.45387974  0.71054933  0.92943731    -0.29700
H679        H  0.46582386  0.67272246  0.88088966     0.14500
H680        H  0.45437227  0.73714091  0.93513679     0.15000
C681        C  0.45440309  0.70737385  0.63481432    -0.14600
C682        C  0.46606252  0.69251416  0.59636260    -0.29700
H683        H  0.42757739  0.70992540  0.64012815     0.14500
H684        H  0.49310734  0.69131402  0.59173021     0.15000
C685        C  0.05679283  0.89757874  0.52210651    -0.14600
C686        C  0.05619833  0.92230107  0.00195457    -0.29700
H687        H  0.04870723  0.90307550  0.55732047     0.14500
H688        H  0.06241997  0.91834278  0.96556236     0.15000
C689        C  0.03590335  0.80346410  0.92210862    -0.15400
C690        C  0.04981394  0.78724186  0.88594566    -0.29700
H691        H  0.00867066  0.80542566  0.92278958     0.14500
H692        H  0.07671840  0.78635411  0.88119744     0.15000
C693        C  0.02976622  0.80561782  0.59296350    -0.14600
C694        C  0.04420219  0.78991226  0.62922895    -0.29700
H695        H  0.00250750  0.80615464  0.59067195     0.14500
H696        H  0.07135202  0.78825309  0.63204358     0.15000
C697        C  0.39658198  0.94164534  0.99257508    -0.14600
C698        C  0.41967561  0.94635315  0.02646332    -0.29700
H699        H  0.41593645  0.93005704  0.53470642     0.14500
H700        H  0.41427240  0.93778558  0.06148791     0.15000
C701        C  0.28622489  0.95136803  0.88346913    -0.14600
C702        C  0.30478110  0.96415607  0.91850908    -0.29700
H703        H  0.28131643  0.92499458  0.88188422     0.14500
H704        H  0.30827055  0.99079641  0.91970457     0.15000
C705        C  0.28169596  0.94972822  0.62627040    -0.14600
C706        C  0.29842125  0.96311396  0.59017746    -0.29700
H707        H  0.28091988  0.92324617  0.63157024     0.14500
H708        H  0.30060171  0.98989564  0.58892346     0.15000
C709        C  0.08363432  0.56253742  0.00254206    -0.14600
C710        C  0.10586876  0.56561305  0.96793983    -0.29700
H711        H  0.08800265  0.56826998  0.53485851     0.14500
H712        H  0.09910296  0.55836845  0.93259550     0.15000
C713        C  0.19192190  0.53472053  0.89215065    -0.14600
C714        C  0.20851086  0.54469604  0.85424112    -0.29700
H715        H  0.18785547  0.50836497  0.89687956     0.14500
H716        H  0.21405188  0.57070289  0.84912036     0.15000
C717        C  0.19888457  0.53481781  0.59889677    -0.14600
C718        C  0.21219221  0.54766711  0.55987453    -0.29700
H719        H  0.17258776  0.53789365  0.60703538     0.14500
H720        H  0.23924498  0.54605778  0.55549165     0.15000
C721        C  0.19422122  0.64591003  0.95487823    -0.14600
C722        C  0.19270660  0.66875528  0.98893006    -0.29700
H723        H  0.20468402  0.65169551  0.92106148     0.14500
H724        H  0.18467088  0.66091139  0.53131143     0.15000
C725        C  0.16170885  0.80678385  0.49626087    -0.14600
C726        C  0.13796762  0.80923108  0.52904992    -0.29700
H727        H  0.15587557  0.81511659  0.46108397     0.14500
H728        H  0.14551526  0.80053677  0.06247399     0.15000
C729        C  0.32983785  0.69803512  0.50288772    -0.14600
C730        C  0.35381153  0.69513595  0.53605744    -0.29700
H731        H  0.33539139  0.68919088  0.46796251     0.14500
H732        H  0.34859169  0.69701757  0.06563278     0.15000
C733        C  0.30053052  0.83529366  0.01841346    -0.14600
C734        C  0.30677837  0.85867749  0.98633222    -0.29700
H735        H  0.30369603  0.84391645  0.55618919     0.14500
H736        H  0.30321110  0.85349091  0.94946245     0.15000
O737        O  0.72325920  0.21137729  0.45859987    -0.69900
O738        O  0.77514480  0.29143121  0.45526342    -0.70100
O739        O  0.78883342  0.22602931  0.45807416    -0.70000
O740        O  0.70955034  0.27668946  0.45500428    -0.70000
O741        O  0.71214432  0.27833750  0.03796253    -0.70000
O742        O  0.79323473  0.22653439  0.04020462    -0.70000
O743        O  0.77872559  0.29136049  0.03837448    -0.69900
O744        O  0.72667870  0.21371664  0.04085316    -0.70100
V745        V  0.74921183  0.25142142  0.45818975     1.35200
V746        V  0.75270161  0.25246664  0.03790539     1.35200
C747        C  0.71737847  0.19925432  0.00397517     0.79300
C748        C  0.78759897  0.30444750  0.00059098     0.79400
C749        C  0.80270305  0.21769406  0.49596545     0.79300
C750        C  0.69580598  0.28671584  0.49182373     0.79200
C751        C  0.69261791  0.06272297  0.04404518     0.88400
C752        C  0.65425936  0.06169385  0.04235569    -0.51900
C753        C  0.64042715  0.07031663  0.49593246     0.11300
C754        C  0.66812539  0.08224156  0.46236390     0.22200
C755        C  0.70323935  0.04293135  0.00122205    -0.52600
C756        C  0.69257935  0.05285544  0.46100381     0.11400
C757        C  0.70179648  0.09823646  0.03304016    -0.52100
C758        C  0.68703046  0.10972149  0.48965815     0.11900
H759        H  0.63942833  0.05044736  0.06945052     0.16500
H760        H  0.65859914  0.08980771  0.42746303     0.02200
H761        H  0.72106583  0.02275917  0.50860301     0.16800
H762        H  0.71840687  0.11263971  0.05544219     0.16600
C763        C  0.71727795  0.01278674  0.15307818    -0.09000
C764        C  0.73599500  0.49215720  0.10788499    -0.02900
C765        C  0.75776351  0.47076410  0.13130312    -0.09000
C766        C  0.75904348  0.47136405  0.18061114     0.12000
C767        C  0.73977284  0.49525838  0.20510073    -0.00800
C768        C  0.71999393  0.01434261  0.20219018     0.11800
C769        C  0.70117086  0.03704421  0.22819632    -0.10800
C770        C  0.70474061  0.03894327  0.27654863    -0.10800
C771        C  0.72767582  0.01858653  0.30051209     0.11800
C772        C  0.74158622  0.49684130  0.25452774    -0.00800
C773        C  0.77946345  0.44940072  0.20601511    -0.10900
C774        C  0.78077977  0.45056048  0.25466049    -0.10900
C775        C  0.76204209  0.47399301  0.27958625     0.12000
C776        C  0.76370753  0.47588322  0.32883555    -0.09000
C777        C  0.74434143  0.49965403  0.35182596    -0.02900
C778        C  0.73168715  0.02051888  0.34946912    -0.09000
H779        H  0.68351215  0.05356475  0.21131750     0.09200
H780        H  0.68948099  0.05670655  0.29496704     0.09200
H781        H  0.79459937  0.43109428  0.18845862     0.09400
H782        H  0.79688208  0.43309811  0.27260129     0.09400
H783        H  0.73372061  0.49024345  0.07022200     0.05900
H784        H  0.74498450  0.50063671  0.38962792     0.05900
C785        C  0.80934438  0.44427748  0.02379085     0.88400
C786        C  0.84731053  0.44775060  0.02160458    -0.51900
C787        C  0.86131016  0.43261687  0.47572059     0.11300
C788        C  0.83286409  0.41889744  0.44396834     0.22200
C789        C  0.79661937  0.45924127  0.97791992    -0.52600
C790        C  0.80891346  0.44843726  0.43838377     0.11400
C791        C  0.80246909  0.40738352  0.01894775    -0.52100
C792        C  0.81365087  0.39405186  0.47510538     0.11900
H793        H  0.86120323  0.46219806  0.04724854     0.16500
H794        H  0.84172536  0.40858174  0.41035540     0.02200
H795        H  0.78213414  0.48283927  0.48142313     0.16800
H796        H  0.78660820  0.39382304  0.04268907     0.16600
C797        C  0.55496020  0.31644915  0.46013221     0.88400
C798        C  0.59181841  0.30703915  0.46663161    -0.51900
C799        C  0.60857142  0.31694995  0.01077237     0.11300
C800        C  0.58273171  0.33624126  0.04044499     0.22200
C801        C  0.53773091  0.30319147  0.50374824    -0.52600
C802        C  0.55240744  0.31284080  0.04421243     0.11400
C803        C  0.55386479  0.35382103  0.46581509    -0.52100
C804        C  0.56988127  0.36413833  0.00791441     0.11900
H805        H  0.60519503  0.29144939  0.44236043     0.16500
H806        H  0.59247007  0.34511188  0.07466055     0.02200
H807        H  0.51860057  0.28610039  0.99912742     0.16800
H808        H  0.54093421  0.36954133  0.44080690     0.16600
C809        C  0.52619989  0.26757530  0.15335239    -0.09000
C810        C  0.00634247  0.24273561  0.13448407    -0.02900
C811        C  0.98538661  0.22110442  0.15870231    -0.09000
C812        C  0.98670281  0.22073566  0.20791225     0.12000
C813        C  0.00956838  0.24197074  0.23187623    -0.00800
C814        C  0.52752547  0.26719414  0.20265674     0.11800
C815        C  0.54910479  0.28835505  0.22774197    -0.10800
C816        C  0.54979119  0.28822095  0.27638357    -0.10800
C817        C  0.52907477  0.26677697  0.30165917     0.11800
C818        C  0.01106964  0.24166894  0.28139564    -0.00800
C819        C  0.96613450  0.19947894  0.23371732    -0.10900
C820        C  0.96770942  0.19908844  0.28229420    -0.10900
C821        C  0.98995912  0.21990200  0.30680543     0.12000
C822        C  0.99126994  0.22019852  0.35610090    -0.09000
C823        C  0.01379670  0.24137358  0.37877643    -0.02900
C824        C  0.52928654  0.26668045  0.35092316    -0.09000
H825        H  0.56547132  0.30542696  0.20992516     0.09200
H826        H  0.56665932  0.30517684  0.29406812     0.09200
H827        H  0.94863775  0.18290915  0.21647006     0.09400
H828        H  0.95112597  0.18243543  0.30047890     0.09400
H829        H  0.00506834  0.24292428  0.09669189     0.05900
H830        H  0.01585686  0.24051163  0.41652103     0.05900
C831        C  0.94232052  0.19389765  0.46602540     0.88400
C832        C  0.90594252  0.20259795  0.47490803    -0.51900
C833        C  0.89614819  0.18690353  0.01621464     0.11300
C834        C  0.92112244  0.16252170  0.03976920     0.22200
C835        C  0.96112583  0.20401513  0.51050035    -0.52600
C836        C  0.95310916  0.18300369  0.04894723     0.11400
C837        C  0.94360009  0.15607914  0.46640156    -0.52100
C838        C  0.93163031  0.13876847  0.99997025     0.11900
H839        H  0.89190786  0.21911719  0.45214666     0.16500
H840        H  0.91125234  0.14994558  0.07115489     0.02200
H841        H  0.98784388  0.21323951  0.01109923     0.16800
H842        H  0.95607919  0.14188007  0.43967362     0.16600
O843        O  0.97494134  0.03843716  0.07090181    -0.69900
O844        O  0.53080646  0.46468878  0.03091261    -0.70100
O845        O  0.54095832  0.03081578  0.05768913    -0.70000
O846        O  0.96341125  0.47824965  0.03779861    -0.70000
O847        O  0.96286215  0.47316826  0.45125746    -0.70000
O848        O  0.54146355  0.02965101  0.45753865    -0.70000
O849        O  0.53044423  0.46806292  0.45734306    -0.69900
O850        O  0.97504727  0.04254561  0.45248881    -0.70100
V851        V  0.00151389  0.50576218  0.03561838     1.35200
V852        V  0.50041671  0.50391641  0.45921354     1.35200
C853        C  0.96191192  0.05393839  0.48889623     0.79300
C854        C  0.53962587  0.45407934  0.49452301     0.79400
C855        C  0.55039654  0.03725842  0.49875242     0.79300
C856        C  0.95036164  0.46304165  0.48915608     0.79200
C857        C  0.94200236  0.08438842  0.48435114    -0.14600
C858        C  0.93483145  0.10236284  0.00296419    -0.29700
H859        H  0.94808566  0.09933821  0.07438822     0.14500
H860        H  0.94464325  0.10066376  0.55425198     0.15000
C861        C  0.97001609  0.19898676  0.38621724    -0.14600
C862        C  0.95608351  0.21224318  0.42460637    -0.29700
H863        H  0.96845651  0.17279705  0.37880010     0.14500
H864        H  0.95657577  0.23899258  0.42850495     0.15000
C865        C  0.96130773  0.20106441  0.13030842    -0.14600
C866        C  0.97259637  0.18470659  0.09286351    -0.29700
H867        H  0.93462865  0.20573081  0.13411402     0.14500
H868        H  0.99959222  0.18170967  0.08940562     0.15000
C869        C  0.56347173  0.39879990  0.02287032    -0.14600
C870        C  0.56024985  0.42406747  0.49032760    -0.29700
H871        H  0.55363428  0.40312101  0.05751781     0.14500
H872        H  0.56954674  0.41888782  0.45555081     0.15000
C873        C  0.53683398  0.30449418  0.41665634    -0.15400
C874        C  0.55075316  0.28850617  0.38036254    -0.29700
H875        H  0.50958861  0.30626210  0.41755512     0.14500
H876        H  0.57764733  0.28798355  0.37532269     0.15000
C877        C  0.53377507  0.30460015  0.08688019    -0.14600
C878        C  0.54763761  0.28930159  0.12387698    -0.29700
H879        H  0.50657562  0.30433053  0.08322887     0.14500
H880        H  0.57473076  0.28850696  0.12823663     0.15000
C881        C  0.89611825  0.43970034  0.46007660    -0.14600
C882        C  0.92097982  0.44107616  0.49199044    -0.29700
H883        H  0.90305897  0.44763551  0.93452064     0.14500
H884        H  0.91642864  0.43073385  0.52631565     0.15000
C885        C  0.78461771  0.45356125  0.35865068    -0.14600
C886        C  0.80181762  0.46655692  0.39484593    -0.29700
H887        H  0.78153162  0.42699244  0.35551211     0.14500
H888        H  0.80386455  0.49330138  0.39730284     0.15000
C889        C  0.77879900  0.44901826  0.10165825    -0.14600
C890        C  0.79483813  0.46243509  0.06504077    -0.29700
H891        H  0.77875234  0.42263641  0.10785257     0.14500
H892        H  0.79618779  0.48925231  0.06299279     0.15000
C893        C  0.58099467  0.05627020  0.50984684    -0.14600
C894        C  0.60587271  0.06177754  0.47954308    -0.29700
H895        H  0.58841368  0.07290510  0.05751082     0.14500
H896        H  0.60205628  0.05647234  0.44273968     0.15000
C897        C  0.70007770  0.03184890  0.42036761    -0.14600
C898        C  0.71190125  0.04323530  0.37975977    -0.29700
H899        H  0.70182417  0.00550008  0.42738091     0.14500
H900        H  0.71087443  0.06943116  0.37178764     0.15000
C901        C  0.69646861  0.03555997  0.12434270    -0.14600
C902        C  0.71059167  0.04991223  0.08694301    -0.29700
H903        H  0.66977353  0.03680203  0.13073397     0.14500
H904        H  0.73781280  0.04908605  0.08420967     0.15000
C905        C  0.69430489  0.14363244  0.47223479    -0.14600
C906        C  0.69524345  0.16878094  0.50300627    -0.29700
H907        H  0.70266794  0.14692937  0.43664176     0.14500
H908        H  0.69039906  0.16288975  0.04428458     0.15000
C909        C  0.66752328  0.30513490  0.99381069    -0.14600
C910        C  0.64339585  0.30822895  0.02607392    -0.29700
H911        H  0.66210506  0.31338752  0.95849357     0.14500
H912        H  0.64718726  0.30347893  0.55674035     0.15000
C913        C  0.83743627  0.19812422  0.99812454    -0.14600
C914        C  0.86121893  0.19430790  0.03137417    -0.29700
H915        H  0.84347830  0.19057065  0.96275291     0.14500
H916        H  0.85174380  0.20265706  0.56321347     0.15000
C917        C  0.80313529  0.33638234  0.49599910    -0.14600
C918        C  0.80514284  0.35928928  0.46214537    -0.29700
H919        H  0.81358537  0.34339730  0.03842084     0.14500
H920        H  0.79740330  0.35362710  0.42663202     0.15000
O921        O  0.72571815  0.21151919  0.96512917    -0.69900
O922        O  0.77897500  0.29061149  0.96261363    -0.70100
O923        O  0.79146559  0.22507579  0.96448462    -0.70000
O924        O  0.71320284  0.27701903  0.96224568    -0.70000
O925        O  0.70934836  0.27955002  0.53068232    -0.70000
O926        O  0.78946266  0.22689115  0.53384658    -0.70000
O927        O  0.77596933  0.29176074  0.53103497    -0.69900
O928        O  0.72284270  0.21485160  0.53421919    -0.70100
V929        V  0.75235602  0.25108310  0.96512856     1.35200
V930        V  0.74941623  0.25323502  0.53095351     1.35200
C931        C  0.71424953  0.19973025  0.49754249     0.79300
C932        C  0.78428915  0.30507295  0.49316467     0.79400
C933        C  0.80592147  0.21701912  0.00203816     0.79300
C934        C  0.69904383  0.28634772  0.99908547     0.79200
C935        C  0.69072411  0.06400125  0.54436823     0.88400
C936        C  0.65249172  0.06121888  0.53922950    -0.51900
C937        C  0.64050962  0.07251093  0.00095766     0.11300
C938        C  0.66695773  0.08410814  0.96530254     0.22200
C939        C  0.70426224  0.04367225  0.50374551    -0.52600
C940        C  0.69000996  0.05383642  0.96013248     0.11400
C941        C  0.69881832  0.09963210  0.53230196    -0.52100
C942        C  0.68836885  0.10999709  0.99220122     0.11900
H943        H  0.63693014  0.05023180  0.56571186     0.16500
H944        H  0.65607585  0.09300800  0.93181588     0.02200
H945        H  0.71930415  0.02125980  0.00340009     0.16800
H946        H  0.71380245  0.11526228  0.55525727     0.16600
C947        C  0.71540897  0.01444041  0.65301822    -0.09000
C948        C  0.74083012  0.49154786  0.60795394    -0.02900
C949        C  0.76247265  0.47018629  0.63162847    -0.09000
C950        C  0.76337636  0.47066263  0.68089254     0.12000
C951        C  0.74380443  0.49436998  0.70527103    -0.00800
C952        C  0.71883159  0.01680468  0.70187556     0.11800
C953        C  0.69990480  0.03958396  0.72757215    -0.10800
C954        C  0.70347201  0.04180613  0.77585322    -0.10800
C955        C  0.72593619  0.02117647  0.80011879     0.11800
C956        C  0.74540973  0.49582657  0.75475969    -0.00800
C957        C  0.78364012  0.44860954  0.70634273    -0.10900
C958        C  0.78457696  0.44950533  0.75497999    -0.10900
C959        C  0.76574623  0.47287695  0.77984058     0.12000
C960        C  0.76729232  0.47457945  0.82907765    -0.09000
C961        C  0.74859294  0.49879232  0.85211393    -0.02900
C962        C  0.72895547  0.02261882  0.84916908    -0.09000
H963        H  0.68212163  0.05586745  0.71046698     0.09200
H964        H  0.68819573  0.05965755  0.79410678     0.09200
H965        H  0.79892157  0.43041206  0.68878563     0.09400
H966        H  0.80056858  0.43197834  0.77299733     0.09400
H967        H  0.73885775  0.48947184  0.57028764     0.05900
H968        H  0.74974220  0.49991907  0.88989594     0.05900
C969        C  0.81211042  0.44376897  0.52303580     0.88400
C970        C  0.85002165  0.44512471  0.51722944    -0.51900
C971        C  0.86154476  0.43439596  0.98252525     0.11300
C972        C  0.83563147  0.41800431  0.94907689     0.22200
C973        C  0.79815035  0.46113306  0.47963435    -0.52600
C974        C  0.81031747  0.44587112  0.93883405     0.11400
C975        C  0.80275221  0.40750383  0.51623116    -0.52100
C976        C  0.81617878  0.39319120  0.98006333     0.11900
H977        H  0.86611812  0.45784525  0.54223552     0.16500
H978        H  0.84681287  0.40705886  0.91727133     0.02200
H979        H  0.77962667  0.48023995  0.97656428     0.16800
H980        H  0.78758508  0.39380943  0.54066357     0.16600
C981        C  0.55917089  0.31548162  0.95993678     0.88400
C982        C  0.59580561  0.30607022  0.96881403    -0.51900
C983        C  0.60602203  0.31809524  0.50754327     0.11300
C984        C  0.58129767  0.33746342  0.53880744     0.22200
C985        C  0.54043382  0.30212428  0.00222387    -0.52600
C986        C  0.55122868  0.31406022  0.54480769     0.11400
C987        C  0.55793379  0.35282488  0.96576966    -0.52100
C988        C  0.56727871  0.36523371  0.50705890     0.11900
H989        H  0.61011650  0.29080168  0.94517331     0.16500
H990        H  0.59223293  0.34643190  0.57228066     0.02200
H991        H  0.51585022  0.28713560  0.50227167     0.16800
H992        H  0.54584875  0.36859485  0.94002458     0.16600
C993        C  0.52873191  0.26752688  0.65386454    -0.09000
C994        C  0.00374206  0.25038537  0.63541703    -0.02900
C995        C  0.98242931  0.22911592  0.65955196    -0.09000
C996        C  0.98443211  0.22790161  0.70864110     0.12000
C997        C  0.00818171  0.24814271  0.73263748    -0.00800
C998        C  0.53106273  0.26640395  0.70305890     0.11800
C999        C  0.55375947  0.28658631  0.72785300    -0.10800
C1000       C  0.55517288  0.28600401  0.77648304    -0.10800
C1001       C  0.53407308  0.26508097  0.80199496     0.11800
C1002       C  0.01051012  0.24676901  0.78206410    -0.00800
C1003       C  0.96378279  0.20661941  0.73423324    -0.10900
C1004       C  0.96631959  0.20501991  0.78265303    -0.10900
C1005       C  0.98954118  0.22472146  0.80725964     0.12000
C1006       C  0.99193702  0.22358922  0.85647957    -0.09000
C1007       C  0.01502610  0.24412562  0.87931141    -0.02900
C1008       C  0.53477868  0.26477532  0.85126622    -0.09000
H1009       H  0.57042666  0.30325009  0.70980598     0.09200
H1010       H  0.57287803  0.30220981  0.79400586     0.09200
H1011       H  0.94555211  0.19086462  0.71692539     0.09400
H1012       H  0.94966924  0.18832663  0.80063623     0.09400
H1013       H  0.00215548  0.25085064  0.59764455     0.05900
H1014       H  0.01777107  0.24245767  0.91691755     0.05900
C1015       C  0.94462466  0.19224175  0.96581002     0.88400
C1016       C  0.90906446  0.20238183  0.97799040    -0.51900
C1017       C  0.89282998  0.18891380  0.51429581     0.11300
C1018       C  0.91846159  0.16769090  0.54222189     0.22200
C1019       C  0.96514645  0.19830547  0.01032091    -0.52600
C1020       C  0.94900805  0.19037585  0.55028464     0.11400
C1021       C  0.94323457  0.15453281  0.96108197    -0.52100
C1022       C  0.93150297  0.14207202  0.50658195     0.11900
H1023       H  0.89528561  0.22082387  0.95806263     0.16500
H1024       H  0.90849996  0.15660908  0.57466789     0.02200
H1025       H  0.98333596  0.21964461  0.51030548     0.16800
H1026       H  0.95254216  0.14101247  0.93121835     0.16600
O1027       O  0.96735404  0.03924533  0.52725453    -0.69900
O1028       O  0.52922596  0.46549881  0.53299192    -0.70100
O1029       O  0.53302662  0.02691919  0.53218222    -0.70000
O1030       O  0.96299445  0.47309940  0.52703584    -0.70000
O1031       O  0.96311965  0.47562806  0.96210640    -0.70000
O1032       O  0.53650738  0.03612094  0.98247401    -0.70000
O1033       O  0.53183794  0.46499061  0.95515797    -0.69900
O1034       O  0.97085360  0.04367911  0.99574464    -0.70100
V1035       V  0.99953810  0.50256683  0.52708391     1.35200
V1036       V  0.50167936  0.50080294  0.95494089     1.35200
C1037       C  0.96410002  0.05445841  0.03593778     0.79300
C1038       C  0.54140918  0.45235840  0.99313686     0.79400
C1039       C  0.55165320  0.04306419  0.02028643     0.79300
C1040       C  0.95024395  0.46742494  0.00065967     0.79200
C1041       C  0.94650514  0.08657055  0.04110067    -0.14600
C1042       C  0.93827359  0.10684978  0.51842342    -0.29700
H1043       H  0.93476910  0.09094503  0.44894933     0.14500
H1044       H  0.93446032  0.08922942  0.96985574     0.15000
C1045       C  0.97144187  0.20115500  0.88600984    -0.14600
C1046       C  0.95845004  0.21255800  0.92618309    -0.29700
H1047       H  0.96936684  0.17539262  0.87621234     0.14500
H1048       H  0.95972280  0.23898422  0.93302071     0.15000
C1049       C  0.95788736  0.20970417  0.63112864    -0.14600
C1050       C  0.96890993  0.19323506  0.59367426    -0.29700
H1051       H  0.93126579  0.21446227  0.63536748     0.14500
H1052       H  0.99586595  0.19007435  0.58989788     0.15000
C1053       C  0.56153068  0.39991601  0.52234956    -0.14600
C1054       C  0.56300463  0.42291795  0.99073400    -0.29700
H1055       H  0.55311027  0.40434478  0.55770118     0.14500
H1056       H  0.57358340  0.41782063  0.95666658     0.15000
C1057       C  0.54219589  0.30374701  0.91541829    -0.15400
C1058       C  0.55648591  0.28645613  0.88062975    -0.29700
H1059       H  0.51503394  0.30664499  0.91446742     0.14500
H1060       H  0.58345914  0.28430607  0.87752029     0.15000
C1061       C  0.53437251  0.30602568  0.58890717    -0.14600
C1062       C  0.54943877  0.28963563  0.62404629    -0.29700
H1063       H  0.50708033  0.30646931  0.58758588     0.14500
H1064       H  0.57661763  0.28794362  0.62595092     0.15000
C1065       C  0.89706021  0.44191901  0.97045023    -0.14600
C1066       C  0.91973864  0.44707707  0.00476460    -0.29700
H1067       H  0.89975456  0.44930050  0.42517117     0.14500
H1068       H  0.91331515  0.44005243  0.04012337     0.15000
C1069       C  0.78686518  0.45114781  0.85889343    -0.14600
C1070       C  0.80597889  0.46316217  0.89388469    -0.29700
H1071       H  0.78065685  0.42503544  0.85757040     0.14500
H1072       H  0.81074507  0.48961375  0.89481510     0.15000
C1073       C  0.78321917  0.44803896  0.60219346    -0.14600
C1074       C  0.80050758  0.46135810  0.56664742    -0.29700
H1075       H  0.78069056  0.42158586  0.60640271     0.14500
H1076       H  0.80386491  0.48804703  0.56645588     0.15000
C1077       C  0.58186617  0.06385014  0.02291453    -0.14600
C1078       C  0.60471245  0.06584507  0.98889579    -0.29700
H1079       H  0.58459644  0.06269723  0.54630891     0.14500
H1080       H  0.59858619  0.05755519  0.95379811     0.15000
C1081       C  0.69487376  0.03397102  0.91762025    -0.14600
C1082       C  0.70942935  0.04574860  0.87904043    -0.29700
H1083       H  0.69385110  0.00732955  0.92234257     0.14500
H1084       H  0.71169372  0.07219287  0.87357222     0.15000
C1085       C  0.69346328  0.03616346  0.62424420    -0.14600
C1086       C  0.70766545  0.05301753  0.58911561    -0.29700
H1087       H  0.66652396  0.03375034  0.62741201     0.14500
H1088       H  0.73493589  0.05480626  0.58897580     0.15000
C1089       C  0.69567904  0.14429678  0.97654608    -0.14600
C1090       C  0.69845835  0.16825050  0.00897634    -0.29700
H1091       H  0.70240703  0.14876207  0.94052400     0.14500
H1092       H  0.68573915  0.16451703  0.53789666     0.15000
C1093       C  0.66414211  0.30519759  0.48700401    -0.14600
C1094       C  0.64120837  0.30933049  0.52068836    -0.29700
H1095       H  0.65770932  0.31249102  0.45158759     0.14500
H1096       H  0.64811119  0.30139022  0.06211509     0.15000
C1097       C  0.83424574  0.19884856  0.49325936    -0.14600
C1098       C  0.85744907  0.19596149  0.52749899    -0.29700
H1099       H  0.84083548  0.19075998  0.45833933     0.14500
H1100       H  0.85635942  0.20040238  0.06754894     0.15000
C1101       C  0.80615470  0.33591633  0.00338695    -0.14600
C1102       C  0.80945317  0.35784401  0.96846442    -0.29700
H1103       H  0.81223962  0.34277009  0.53071445     0.14500
H1104       H  0.80346985  0.35102058  0.93272527     0.15000
O1105       O  0.72263232  0.71611256  0.45901786    -0.69900
O1106       O  0.77334342  0.79670582  0.46782213    -0.70100
O1107       O  0.78790790  0.73144323  0.46287260    -0.70000
O1108       O  0.70809725  0.78110259  0.46319495    -0.70000
O1109       O  0.70452340  0.77834663  0.03915464    -0.70000
O1110       O  0.78327865  0.72397222  0.03502589    -0.70000
O1111       O  0.77136072  0.78918691  0.04237910    -0.69900
O1112       O  0.71646381  0.71347771  0.03223029    -0.70100
V1113       V  0.74804307  0.75631036  0.46473263     1.35200
V1114       V  0.74396146  0.75134761  0.03573764     1.35200
C1115       C  0.70782944  0.70179967  0.99310660     0.79300
C1116       C  0.78058631  0.80501155  0.00686786     0.79400
C1117       C  0.80135644  0.72099145  0.49996666     0.79300
C1118       C  0.69311574  0.78801231  0.50045263     0.79200
C1119       C  0.69209230  0.56467986  0.02092185     0.88400
C1120       C  0.65375062  0.56160135  0.01888681    -0.51900
C1121       C  0.63949964  0.57432746  0.48195179     0.11300
C1122       C  0.66463631  0.58768959  0.44570123     0.22200
C1123       C  0.70387656  0.54637261  0.97737914    -0.52600
C1124       C  0.68749474  0.55775514  0.43642048     0.11400
C1125       C  0.69931648  0.60079468  0.01155674    -0.52100
C1126       C  0.68689371  0.61261845  0.47328962     0.11900
H1127       H  0.63938414  0.54896059  0.04527248     0.16500
H1128       H  0.65253740  0.59790975  0.41380223     0.02200
H1129       H  0.71797129  0.52332474  0.47500431     0.16800
H1130       H  0.71470545  0.61575833  0.03491003     0.16600
C1131       C  0.71748460  0.51624773  0.13107110    -0.09000
C1132       C  0.73571882  0.98913262  0.12888153    -0.02900
C1133       C  0.75880663  0.96849046  0.15109926    -0.09000
C1134       C  0.76229580  0.96985484  0.20010483     0.12000
C1135       C  0.74283941  0.99294748  0.22576396    -0.00800
C1136       C  0.71917187  0.51802583  0.18017700     0.11800
C1137       C  0.70147350  0.54230488  0.20486816    -0.10800
C1138       C  0.70351931  0.54407823  0.25330382    -0.10800
C1139       C  0.72322038  0.52155680  0.27873606     0.11800
C1140       C  0.74687794  0.99522703  0.27491982    -0.00800
C1141       C  0.78520032  0.94945602  0.22394542    -0.10900
C1142       C  0.78896230  0.95148350  0.27223953    -0.10900
C1143       C  0.77015381  0.97416160  0.29832983     0.12000
C1144       C  0.77456349  0.97698629  0.34710290    -0.09000
C1145       C  0.75555272  0.00025378  0.37145047    -0.02900
C1146       C  0.72460167  0.52266872  0.32785630    -0.09000
H1147       H  0.68597210  0.56025951  0.18688421     0.09200
H1148       H  0.68928988  0.56314913  0.27074912     0.09200
H1149       H  0.80055109  0.93183758  0.20537896     0.09400
H1150       H  0.80709966  0.93538843  0.28897389     0.09400
H1151       H  0.73259688  0.98724273  0.09131558     0.05900
H1152       H  0.75898781  0.00218076  0.40890337     0.05900
C1153       C  0.80934391  0.94346533  0.04240597     0.88400
C1154       C  0.84739695  0.94519443  0.04151661    -0.51900
C1155       C  0.86276315  0.93165376  0.50771351     0.11300
C1156       C  0.83841732  0.92013435  0.46832950     0.22200
C1157       C  0.79806529  0.96031797  0.99713696    -0.52600
C1158       C  0.81890633  0.95171639  0.45546968     0.11400
C1159       C  0.80073248  0.90708819  0.03526176    -0.52100
C1160       C  0.81246538  0.89795888  0.49352171     0.11900
H1161       H  0.86148860  0.95852010  0.06815886     0.16500
H1162       H  0.85098234  0.90816982  0.43831332     0.02200
H1163       H  0.78972296  0.98923852  0.48900852     0.16800
H1164       H  0.78373352  0.89374955  0.05770290     0.16600
C1165       C  0.55161986  0.81058603  0.46831799     0.88400
C1166       C  0.58848090  0.80185069  0.47631897    -0.51900
C1167       C  0.60160297  0.81719949  0.01910481     0.11300
C1168       C  0.57611273  0.83645540  0.04923781     0.22200
C1169       C  0.53409022  0.79952920  0.51292297    -0.52600
C1170       C  0.54561420  0.81321261  0.05333577     0.11400
C1171       C  0.55013838  0.84808176  0.46997383    -0.52100
C1172       C  0.56335906  0.86451634  0.01688863     0.11900
H1173       H  0.60236378  0.78544486  0.45364544     0.16500
H1174       H  0.58618262  0.84519773  0.08334044     0.02200
H1175       H  0.51137613  0.78679810  0.00844855     0.16800
H1176       H  0.53726299  0.86226852  0.44313592     0.16600
C1177       C  0.51897507  0.76756692  0.16236162    -0.09000
C1178       C  0.01020042  0.73852971  0.13468141    -0.02900
C1179       C  0.98817501  0.71749703  0.15797162    -0.09000
C1180       C  0.98916931  0.71640199  0.20719452     0.12000
C1181       C  0.01168956  0.73751746  0.23206911    -0.00800
C1182       C  0.52170913  0.76543316  0.21154050     0.11800
C1183       C  0.54425979  0.78545099  0.23684787    -0.10800
C1184       C  0.54636692  0.78356396  0.28537275    -0.10800
C1185       C  0.52629138  0.76130785  0.31025873     0.11800
C1186       C  0.01208070  0.73730501  0.28162699    -0.00800
C1187       C  0.96770855  0.69552407  0.23217897    -0.10900
C1188       C  0.96819253  0.69522504  0.28080470    -0.10900
C1189       C  0.99012673  0.71583534  0.30619635     0.12000
C1190       C  0.99021645  0.71632894  0.35553144    -0.09000
C1191       C  0.01245295  0.73733562  0.37903055    -0.02900
C1192       C  0.52798904  0.75935267  0.35939861    -0.09000
H1193       H  0.56024250  0.80302519  0.21933268     0.09200
H1194       H  0.56393241  0.79970154  0.30328297     0.09200
H1195       H  0.95015202  0.67938268  0.21424950     0.09400
H1196       H  0.95091475  0.67890927  0.29833836     0.09400
H1197       H  0.01022017  0.73827499  0.09683429     0.05900
H1198       H  0.01370247  0.73652250  0.41683511     0.05900
C1199       C  0.93974932  0.69103405  0.46459772     0.88400
C1200       C  0.90375162  0.70078587  0.47428185    -0.51900
C1201       C  0.88554704  0.68493521  0.00994147     0.11300
C1202       C  0.91295624  0.66949822  0.04197903     0.22200
C1203       C  0.95927164  0.70055605  0.50880938    -0.52600
C1204       C  0.93819445  0.69783447  0.04960393     0.11400
C1205       C  0.93989472  0.65322172  0.46478947    -0.52100
C1206       C  0.93171977  0.64451302  0.01042223     0.11900
H1207       H  0.89018654  0.71800286  0.45203440     0.16500
H1208       H  0.90321600  0.65891918  0.07488505     0.02200
H1209       H  0.96738910  0.73166160  0.00897927     0.16800
H1210       H  0.95186047  0.63876863  0.43788016     0.16600
O1211       O  0.97340595  0.54437381  0.03494447    -0.69900
O1212       O  0.53071838  0.96498947  0.05014730    -0.70100
O1213       O  0.53718591  0.53106952  0.03050501    -0.70000
O1214       O  0.96433657  0.97265585  0.06077735    -0.70000
O1215       O  0.96379147  0.97788465  0.44273789    -0.70000
O1216       O  0.53795343  0.53371413  0.46020593    -0.70000
O1217       O  0.52994491  0.96467668  0.45000752    -0.69900
O1218       O  0.97121892  0.53895834  0.45131170    -0.70100
V1219       V  0.00243258  0.00024929  0.06082581     1.35200
V1220       V  0.50244192  0.00254945  0.44859618     1.35200
C1221       C  0.96040384  0.55190385  0.48822477     0.79300
C1222       C  0.53557329  0.94998693  0.48798781     0.79400
C1223       C  0.55041876  0.54227506  0.49929813     0.79300
C1224       C  0.94691783  0.96683100  0.47651142     0.79200
C1225       C  0.93930385  0.58165840  0.48374630    -0.14600
C1226       C  0.94036740  0.60991393  0.02387884    -0.29700
H1227       H  0.93658199  0.59254280  0.95512551     0.14500
H1228       H  0.94290877  0.59883621  0.55315116     0.15000
C1229       C  0.96798631  0.69553063  0.38494101    -0.14600
C1230       C  0.95371152  0.70906067  0.42295969    -0.29700
H1231       H  0.96632658  0.66932468  0.37770797     0.14500
H1232       H  0.95450850  0.73581209  0.42673162     0.15000
C1233       C  0.96438842  0.69793155  0.12838838    -0.14600
C1234       C  0.94724309  0.71357789  0.09441493    -0.29700
H1235       H  0.96563795  0.67113744  0.12908696     0.14500
H1236       H  0.94761955  0.74045946  0.09419709     0.15000
C1237       C  0.55858229  0.89933623  0.03225028    -0.14600
C1238       C  0.55526977  0.91928030  0.48658349    -0.29700
H1239       H  0.55307559  0.90392742  0.06870155     0.14500
H1240       H  0.56472834  0.91236674  0.45249825     0.15000
C1241       C  0.53408055  0.79654315  0.42577550    -0.15400
C1242       C  0.54878978  0.78134100  0.38944343    -0.29700
H1243       H  0.50677628  0.79691776  0.42676610     0.14500
H1244       H  0.57567756  0.78224699  0.38430002     0.15000
C1245       C  0.52700569  0.80510363  0.09619070    -0.14600
C1246       C  0.54064301  0.78922793  0.13293176    -0.29700
H1247       H  0.49979984  0.80549647  0.09276788     0.14500
H1248       H  0.56773167  0.78789767  0.13702287     0.15000
C1249       C  0.89971081  0.93403373  0.50505276    -0.14600
C1250       C  0.91503219  0.94861277  0.46892477    -0.29700
H1251       H  0.90287053  0.94797225  0.95520233     0.14500
H1252       H  0.90170012  0.95193015  0.43605307     0.15000
C1253       C  0.79639987  0.95457124  0.37543279    -0.14600
C1254       C  0.81629593  0.96733047  0.40904253    -0.29700
H1255       H  0.79010853  0.92846329  0.37596297     0.14500
H1256       H  0.82092719  0.99380977  0.40842541     0.15000
C1257       C  0.77943767  0.94718491  0.12049149    -0.14600
C1258       C  0.79513388  0.96116026  0.08414489    -0.29700
H1259       H  0.77945867  0.92070269  0.12590427     0.14500
H1260       H  0.79652436  0.98800749  0.08296075     0.15000
C1261       C  0.58123514  0.56221291  0.50447538    -0.14600
C1262       C  0.60369659  0.56686432  0.47046717    -0.29700
H1263       H  0.58683123  0.57024523  0.03306319     0.14500
H1264       H  0.59713257  0.56100234  0.43454961     0.15000
C1265       C  0.68883410  0.53849012  0.39280434    -0.14600
C1266       C  0.70725775  0.54813132  0.35639430    -0.29700
H1267       H  0.68281997  0.51237576  0.39592225     0.14500
H1268       H  0.71497650  0.57375318  0.35313602     0.15000
C1269       C  0.69675751  0.53857074  0.10157785    -0.14600
C1270       C  0.71058978  0.55203411  0.06342118    -0.29700
H1271       H  0.67019005  0.54061233  0.10861029     0.14500
H1272       H  0.73777936  0.55113689  0.06024847     0.15000
C1273       C  0.69297254  0.64795286  0.46137316    -0.14600
C1274       C  0.69521708  0.66996137  0.49660819    -0.29700
H1275       H  0.69969132  0.65463870  0.42604572     0.14500
H1276       H  0.67841242  0.66350221  0.02609207     0.15000
C1277       C  0.66034398  0.80829956  0.99935618    -0.14600
C1278       C  0.63681642  0.80915443  0.03272105    -0.29700
H1279       H  0.65413013  0.81829715  0.96518345     0.14500
H1280       H  0.64354964  0.80178496  0.56587046     0.15000
C1281       C  0.82665283  0.69660522  0.99090361    -0.14600
C1282       C  0.85035973  0.69212963  0.02404820    -0.29700
H1283       H  0.83206375  0.68910138  0.95535832     0.14500
H1284       H  0.85087499  0.70165026  0.56502411     0.15000
C1285       C  0.79688248  0.84122144  0.51438007    -0.14600
C1286       C  0.80424152  0.86311295  0.48062717    -0.29700
H1287       H  0.80561956  0.84164153  0.05042089     0.14500
H1288       H  0.80265199  0.85614071  0.44410797     0.15000
O1289       O  0.71727289  0.71654098  0.95659261    -0.69900
O1290       O  0.77180964  0.79435213  0.96698687    -0.70100
O1291       O  0.78311181  0.72867142  0.95954817    -0.70000
O1292       O  0.70573464  0.78209317  0.96360073    -0.70000
O1293       O  0.70591114  0.77847380  0.53878216    -0.70000
O1294       O  0.78777397  0.72819611  0.53848820    -0.70000
O1295       O  0.77190949  0.79297523  0.54334021    -0.69900
O1296       O  0.72160765  0.71419498  0.53470673    -0.70100
V1297       V  0.74448646  0.75537479  0.96316984     1.35200
V1298       V  0.74689665  0.75352842  0.53738236     1.35200
C1299       C  0.71356133  0.70158309  0.49592802     0.79300
C1300       C  0.78058027  0.80875319  0.50752952     0.79400
C1301       C  0.79628956  0.71696215  0.99608673     0.79300
C1302       C  0.69170195  0.78914392  0.00157294     0.79200
C1303       C  0.69321599  0.56333886  0.52065227     0.88400
C1304       C  0.65474321  0.56209800  0.52158082    -0.51900
C1305       C  0.63960953  0.57255561  0.97781221     0.11300
C1306       C  0.66546072  0.58629717  0.94297846     0.22200
C1307       C  0.70227960  0.54529690  0.47559838    -0.52600
C1308       C  0.69009520  0.55734742  0.93666544     0.11400
C1309       C  0.70191712  0.59919964  0.51187389    -0.52100
C1310       C  0.68523326  0.61269959  0.97130986     0.11900
H1311       H  0.64101776  0.54932913  0.54850225     0.16500
H1312       H  0.65417132  0.59536839  0.90984076     0.02200
H1313       H  0.72048426  0.52507392  0.97890003     0.16800
H1314       H  0.71912376  0.61283928  0.53438665     0.16600
C1315       C  0.72167229  0.51531631  0.63093476    -0.09000
C1316       C  0.73471464  0.99151940  0.62881942    -0.02900
C1317       C  0.75999309  0.97291033  0.65049046    -0.09000
C1318       C  0.76281950  0.97383404  0.69979849     0.12000
C1319       C  0.74219833  0.99599544  0.72549275    -0.00800
C1320       C  0.72302347  0.51694609  0.68020667     0.11800
C1321       C  0.70479538  0.54081991  0.70500399    -0.10800
C1322       C  0.70673131  0.54254198  0.75352091    -0.10800
C1323       C  0.72683411  0.52036372  0.77901599     0.11800
C1324       C  0.74543163  0.99788706  0.77480486    -0.00800
C1325       C  0.78577000  0.95369991  0.72413063    -0.10900
C1326       C  0.78789848  0.95455684  0.77272877    -0.10900
C1327       C  0.76799962  0.97637906  0.79869598     0.12000
C1328       C  0.77058520  0.97795190  0.84786665    -0.09000
C1329       C  0.75132489  0.00124090  0.87185343    -0.02900
C1330       C  0.72847168  0.52162575  0.82821283    -0.09000
H1331       H  0.68906606  0.55859407  0.68706456     0.09200
H1332       H  0.69216678  0.56136399  0.77096286     0.09200
H1333       H  0.80208763  0.93679546  0.70594186     0.09400
H1334       H  0.80574316  0.93833726  0.78983181     0.09400
H1335       H  0.73056390  0.98904786  0.59153740     0.05900
H1336       H  0.75326002  0.00234584  0.90957019     0.05900
C1337       C  0.80919072  0.94863392  0.53914103     0.88400
C1338       C  0.84709717  0.94573044  0.54498748    -0.51900
C1339       C  0.86156008  0.93247747  0.00199973     0.11300
C1340       C  0.83544361  0.91815943  0.96697868     0.22200
C1341       C  0.80409548  0.96653795  0.49255502    -0.52600
C1342       C  0.81172971  0.94746366  0.95770362     0.11400
C1343       C  0.79688755  0.91348305  0.52996669    -0.52100
C1344       C  0.81428220  0.89339477  0.99590982     0.11900
H1345       H  0.86066916  0.95625797  0.57452717     0.16500
H1346       H  0.84659603  0.90764077  0.93486703     0.02200
H1347       H  0.78200295  0.98202840  0.99653078     0.16800
H1348       H  0.77732030  0.90197771  0.55042647     0.16600
C1349       C  0.55194377  0.81599340  0.96897885     0.88400
C1350       C  0.58851976  0.80635805  0.97746336    -0.51900
C1351       C  0.60219038  0.81515437  0.51619413     0.11300
C1352       C  0.57706213  0.83595477  0.54492684     0.22200
C1353       C  0.53333397  0.80266434  0.01140230    -0.52600
C1354       C  0.54708987  0.81276840  0.55289803     0.11400
C1355       C  0.55092322  0.85337141  0.97489517    -0.52100
C1356       C  0.56309040  0.86178256  0.51003768     0.11900
H1357       H  0.60281258  0.79119506  0.95366124     0.16500
H1358       H  0.58764218  0.84681014  0.57749264     0.02200
H1359       H  0.51223454  0.78342635  0.51279356     0.16800
H1360       H  0.53892595  0.86919621  0.94918366     0.16600
C1361       C  0.52168879  0.77031954  0.66305161    -0.09000
C1362       C  0.00033262  0.74731401  0.63586785    -0.02900
C1363       C  0.97902025  0.72579418  0.65952430    -0.09000
C1364       C  0.98041052  0.72480834  0.70870800     0.12000
C1365       C  0.00385417  0.74522482  0.73310623    -0.00800
C1366       C  0.52418186  0.76892689  0.71215828     0.11800
C1367       C  0.54628689  0.78967198  0.73702002    -0.10800
C1368       C  0.54806065  0.78863280  0.78556579    -0.10800
C1369       C  0.52820585  0.76642016  0.81083364     0.11800
C1370       C  0.00548885  0.74425611  0.78258229    -0.00800
C1371       C  0.95948748  0.70362715  0.73404604    -0.10900
C1372       C  0.96137054  0.70241073  0.78256879    -0.10900
C1373       C  0.98412885  0.72245982  0.80744780     0.12000
C1374       C  0.98562816  0.72199524  0.85665604    -0.09000
C1375       C  0.00789291  0.74306991  0.88000751    -0.02900
C1376       C  0.52961693  0.76529550  0.85997338    -0.09000
H1377       H  0.56211157  0.80719009  0.71910668     0.09200
H1378       H  0.56522475  0.80534088  0.80318976     0.09200
H1379       H  0.94153546  0.68771121  0.71647167     0.09400
H1380       H  0.94459325  0.68578951  0.80049790     0.09400
H1381       H  0.99902218  0.74795895  0.59808549     0.05900
H1382       H  0.00949213  0.74196398  0.91778530     0.05900
C1383       C  0.93588970  0.69507407  0.96482042     0.88400
C1384       C  0.89809875  0.69791216  0.96958471    -0.51900
C1385       C  0.89062881  0.68749910  0.51398438     0.11300
C1386       C  0.91591667  0.66541024  0.54121946     0.22200
C1387       C  0.95001956  0.71092765  0.00931139    -0.52600
C1388       C  0.94710180  0.68726827  0.54882869     0.11400
C1389       C  0.94358988  0.65825246  0.97004249    -0.52100
C1390       C  0.92799985  0.63946507  0.50523810     0.11900
H1391       H  0.88311142  0.71178176  0.94459376     0.16500
H1392       H  0.90597211  0.65455779  0.57383028     0.02200
H1393       H  0.98174682  0.71580440  0.50830445     0.16800
H1394       H  0.95888178  0.64461676  0.94562201     0.16600
O1395       O  0.96944112  0.53960997  0.52701624    -0.69900
O1396       O  0.52258134  0.96137966  0.52483963    -0.70100
O1397       O  0.53685710  0.53176598  0.53588946    -0.70000
O1398       O  0.95673252  0.97360878  0.51746490    -0.70000
O1399       O  0.96036087  0.97818663  0.98557247    -0.70000
O1400       O  0.53906773  0.53065963  0.95478913    -0.70000
O1401       O  0.52610946  0.97072354  0.97502089    -0.69900
O1402       O  0.97280499  0.54128456  0.95929659    -0.70100
V1403       V  0.99506701  0.00044284  0.52718092     1.35200
V1404       V  0.49807616  0.00772492  0.98465386     1.35200
C1405       C  0.96386414  0.55596717  0.99593628     0.79300
C1406       C  0.53734739  0.95474150  0.00952384     0.79400
C1407       C  0.55087748  0.54068114  0.99354449     0.79300
C1408       C  0.94954010  0.96563209  0.02300133     0.79200
C1409       C  0.94436611  0.58676589  0.99060674    -0.14600
C1410       C  0.93558184  0.60444019  0.51746661    -0.29700
H1411       H  0.93098271  0.58753166  0.44853614     0.14500
H1412       H  0.94674548  0.60461752  0.05997676     0.15000
C1413       C  0.96480596  0.70005517  0.88609693    -0.14600
C1414       C  0.94858213  0.71325984  0.92258605    -0.29700
H1415       H  0.96582210  0.67362081  0.88036911     0.14500
H1416       H  0.94641303  0.74004459  0.92426211     0.15000
C1417       C  0.95513667  0.70601602  0.63039666    -0.14600
C1418       C  0.96679166  0.69053637  0.59239990    -0.29700
H1419       H  0.92835434  0.70973062  0.63475167     0.14500
H1420       H  0.99384511  0.68828298  0.58867522     0.15000
C1421       C  0.55686095  0.89709287  0.52130735    -0.14600
C1422       C  0.55563396  0.92379158  0.00075292    -0.29700
H1423       H  0.54875102  0.90352758  0.55619274     0.14500
H1424       H  0.56212089  0.91900730  0.96466637     0.15000
C1425       C  0.53516316  0.80417344  0.92443298    -0.15400
C1426       C  0.55018626  0.78785678  0.88933392    -0.29700
H1427       H  0.50789603  0.80581076  0.92375990     0.14500
H1428       H  0.57720139  0.78717520  0.88577868     0.15000
C1429       C  0.52948827  0.80772476  0.59726619    -0.14600
C1430       C  0.54340599  0.79148026  0.63335002    -0.29700
H1431       H  0.50226177  0.80938435  0.59536954     0.14500
H1432       H  0.57046440  0.78854974  0.63570714     0.15000
C1433       C  0.89700167  0.94047465  0.99051832    -0.14600
C1434       C  0.91953605  0.94448907  0.02526614    -0.29700
H1435       H  0.91327712  0.93192516  0.53799008     0.14500
H1436       H  0.91336876  0.93549208  0.05983004     0.15000
C1437       C  0.79074134  0.95438418  0.87676354    -0.14600
C1438       C  0.80842663  0.96587676  0.91349527    -0.29700
H1439       H  0.78556519  0.92813166  0.87353354     0.14500
H1440       H  0.81236655  0.99240292  0.91619846     0.15000
C1441       C  0.78307037  0.95394552  0.61944836    -0.14600
C1442       C  0.79211903  0.96700579  0.57813730    -0.29700
H1443       H  0.79087871  0.92911090  0.62867654     0.14500
H1444       H  0.78504830  0.99240227  0.57065695     0.15000
C1445       C  0.58102601  0.56146406  0.99805621    -0.14600
C1446       C  0.60430790  0.56449237  0.96484922    -0.29700
H1447       H  0.58800008  0.56914234  0.53996688     0.14500
H1448       H  0.59886531  0.55672031  0.92930374     0.15000
C1449       C  0.69351512  0.53685803  0.89441332    -0.14600
C1450       C  0.71059514  0.54675324  0.85684349    -0.29700
H1451       H  0.68938367  0.51051481  0.89914186     0.14500
H1452       H  0.71611210  0.57275769  0.85166367     0.15000
C1453       C  0.70027765  0.53710033  0.60122933    -0.14600
C1454       C  0.71285344  0.54934601  0.56136188    -0.29700
H1455       H  0.67417410  0.54048071  0.61025811     0.14500
H1456       H  0.73978473  0.54749263  0.55592998     0.15000
C1457       C  0.68987969  0.64795293  0.95842100    -0.14600
C1458       C  0.68860849  0.67076900  0.99258315    -0.29700
H1459       H  0.69953164  0.65401273  0.92422826     0.14500
H1460       H  0.68715895  0.66222337  0.53103726     0.15000
C1461       C  0.66078586  0.80542347  0.49635937    -0.14600
C1462       C  0.63758650  0.80798164  0.52993458    -0.29700
H1463       H  0.65401012  0.81312121  0.46120626     0.14500
H1464       H  0.64220810  0.80039042  0.06774176     0.15000
C1465       C  0.83242114  0.70153581  0.49534635    -0.14600
C1466       C  0.85585914  0.69620350  0.52867746    -0.29700
H1467       H  0.83816964  0.69442566  0.45972714     0.14500
H1468       H  0.84543978  0.69844407  0.06014553     0.15000
C1469       C  0.79955735  0.83593977  0.01426092    -0.14600
C1470       C  0.80570202  0.85892622  0.98147673    -0.29700
H1471       H  0.80049491  0.84862855  0.55054152     0.14500
H1472       H  0.80135359  0.85356414  0.94481383     0.15000
loop_ 
_geom_bond_atom_site_label_1 
_geom_bond_atom_site_label_2 
_geom_bond_distance 
_geom_bond_site_symmetry_2 
_ccdc_geom_bond_type 
O1            V9   1.918       .  S
O1          C195   1.267       .  A
O2            V9   1.919       .  S
O2          C196   1.267       .  A
O3            V9   1.882       .  S
O3           C13   1.260       .  A
O4            V9   1.883       .  S
O4           C14   1.260       .  A
O5           V10   1.927       .  S
O5          C198   1.269       .  A
O6           V10   1.926       .  S
O6          C197   1.269       .  A
O7           V10   1.884       .  S
O7           C12   1.261   1_554  A
O8           V10   1.883       .  S
O8           C11   1.260       .  A
V9          V194   2.088       .  T
V10         V193   2.088   1_554  T
C11         O185   1.267   1_554  A
C11         C354   1.470       .  S
C12         O186   1.267       .  A
C12         C365   1.471       .  S
C13         O190   1.268       .  A
C13         C361   1.472       .  S
C14         O189   1.268       .  A
C14         C357   1.473       .  S
C15          C16   1.531       .  S
C15          C21   1.516       .  S
C15          C19   1.530       .  S
C15         C166   1.510       .  S
C16          H23   1.082       .  S
C16         C201   1.375       .  D
C17          C18   1.549       .  S
C17         C200   1.378       .  D
C17         C158   1.491       .  S
C18          C22   1.547       .  S
C18          C20   1.537       .  S
C18          H24   1.111       .  S
C19         H209   1.088       .  S
C19         C204   1.361   1_554  D
C20         C203   1.359       .  D
C20         C161   1.471       .  S
C21          H26   1.087       .  S
C21         C206   1.369   1_554  D
C22         C205   1.368       .  D
C22         C169   1.487       .  S
H25         C203   1.088       .  S
C27         C165   1.486       .  S
C27          C32   1.412       .  A
C27         C396   1.394   1_545  A
C28          C29   1.395       .  A
C28         C395   1.395       .  A
C28          H47   1.086       .  S
C29         C153   1.487       .  S
C29          C30   1.414       .  A
C30          C31   1.424       .  A
C30          C37   1.405       .  A
C31          C36   1.420       .  A
C31         C400   1.423       .  A
C32          C33   1.404       .  A
C32         C399   1.424   1_545  A
C33          C34   1.393       .  A
C33          H43   1.082       .  S
C34          C35   1.405       .  A
C34          H44   1.082       .  S
C35          C42   1.410       .  A
C35         C404   1.423   1_545  A
C36          C39   1.423       .  A
C36         C403   1.424       .  A
C37          C38   1.396       .  A
C37          H45   1.082       .  S
C38          C39   1.406       .  A
C38          H46   1.083       .  S
C39          C40   1.414       .  A
C40         C149   1.492       .  S
C40          C41   1.401       .  A
C41         C410   1.399       .  A
C41          H48   1.085       .  S
C42         C162   1.490       .  S
C42         C409   1.399       .  A
C49          C50   1.521       .  S
C49          C55   1.525       .  S
C49          C53   1.531   1_554  S
C49         C154   1.513       .  S
C50          H57   1.086       .  S
C50         C235   1.372   1_554  D
C51          C52   1.549       .  S
C51         C234   1.372       .  D
C51         C145   1.489       .  S
C52          C56   1.554       .  S
C52          C54   1.540       .  S
C52          H58   1.111       .  S
C53         H243   1.088       .  S
C53         C238   1.363       .  D
C54         C237   1.362       .  D
C54         C150   1.475       .  S
C55          H60   1.083       .  S
C55         C240   1.371   1_554  D
C56         C239   1.371       .  D
C56         C182   1.491       .  S
H59         C237   1.088       .  S
C61          C62   1.527       .  S
C61          C67   1.521       .  S
C61          C65   1.531       .  S
C61         C137   1.514       .  S
C62          H69   1.083       .  S
C62         C247   1.372       .  D
C63          C64   1.554       .  S
C63         C246   1.373   1_554  D
C63         C174   1.496       .  S
C64          C68   1.554       .  S
C64          C66   1.542       .  S
C64          H70   1.110       .  S
C65         H255   1.088       .  S
C65         C250   1.362       .  D
C66         C249   1.361       .  D
C66         C141   1.477       .  S
C67          H72   1.086       .  S
C67         C252   1.372       .  D
C68         C251   1.372   1_554  D
C68         C133   1.494       .  S
H71         C249   1.088       .  S
C73         C142   1.496       .  S
C73          C78   1.414       .  A
C73         C810   1.401       .  A
C74          C75   1.399       .  A
C74         C809   1.402       .  A
C74          H93   1.085       .  S
C75         C129   1.490       .  S
C75          C76   1.411       .  A
C76          C77   1.423       .  A
C76          C83   1.405       .  A
C77          C82   1.421       .  A
C77         C814   1.425       .  A
C78          C79   1.406       .  A
C78         C813   1.425       .  A
C79          C80   1.395       .  A
C79          H89   1.082       .  S
C80          C81   1.405       .  A
C80          H90   1.082       .  S
C81          C88   1.413       .  A
C81         C818   1.424       .  A
C82          C85   1.424       .  A
C82         C817   1.423       .  A
C83          C84   1.393       .  A
C83          H91   1.083       .  S
C84          C85   1.405       .  A
C84          H92   1.082       .  S
C85          C86   1.414       .  A
C86         C125   1.489       .  S
C86          C87   1.396       .  A
C87         C824   1.395       .  A
C87          H94   1.085       .  S
C88         C138   1.486       .  S
C88         C823   1.394       .  A
C95          C96   1.517       .  S
C95         C101   1.532       .  S
C95          C99   1.529       .  S
C95         C126   1.511       .  S
C96         H103   1.087       .  S
C96         C281   1.368       .  D
C97          C98   1.550       .  S
C97         C280   1.369   1_554  D
C97         C178   1.491       .  S
C98         C102   1.552   1_554  S
C98         C100   1.541       .  S
C98         H104   1.110       .  S
C99         H289   1.088       .  S
C99         C284   1.361       .  D
C100        C283   1.361       .  D
C100        C130   1.474       .  S
C101        H106   1.081       .  S
C101        C286   1.376       .  D
C102        C285   1.368       .  D
C102        C122   1.479       .  S
H105        C283   1.088       .  S
O107        V483   1.911       .  S
O107        C301   1.265       .  A
O108        V851   1.925       .  S
O108        C302   1.269       .  A
O109       V1219   1.884       .  S
O109        C303   1.260       .  A
O110        V115   1.881       .  S
O110        C304   1.259   1_554  A
O111        V852   1.922       .  S
O111        C120   1.269       .  A
O112        V484   1.915       .  S
O112        C119   1.268       .  A
O113        V116   1.884       .  S
O113        C118   1.260       .  A
O114       V1220   1.885       .  S
O114        C117   1.260       .  A
V115        O475   1.920       .  S
V115        O844   1.920       .  S
V115       O1213   1.882       .  S
V115       V1036   2.088   1_554  T
V116        O847   1.923   1_455  S
V116        O480   1.921       .  S
V116       O1218   1.885   1_455  S
V116       V1035   2.088   1_455  T
C117        O291   1.268       .  A
C117        C121   1.472       .  S
C118        O292   1.268       .  A
C118        C134   1.471       .  S
C119        O293   1.261       .  A
C119        C157   1.475       .  S
C120        O294   1.260       .  A
C120        C146   1.472       .  S
C121        H307   1.085       .  S
C121        C306   1.344       .  D
C122        H308   1.087       .  S
C122        C305   1.343   1_556  D
H123        C305   1.086       .  S
H124        C306   1.086       .  S
C125        H127   1.082       .  S
C125        C126   1.348       .  D
C126        H128   1.088       .  S
C129        H131   1.086       .  S
C129        C130   1.342       .  D
C130        H132   1.088       .  S
C133        H135   1.085       .  S
C133        C318   1.347   1_554  D
C134        H136   1.087       .  S
C134        C317   1.344       .  D
C137        H139   1.089       .  S
C137        C138   1.349       .  D
C138        H140   1.083       .  S
C141        H143   1.088       .  S
C141        C142   1.344       .  D
C142        H144   1.086       .  S
C145        H331   1.086       .  S
C145        C146   1.343       .  D
C146        H148   1.087       .  S
H147        C329   1.086       .  S
C149        H151   1.086       .  S
C149        C150   1.343       .  D
C150        H152   1.088       .  S
C153        H155   1.083       .  S
C153        C154   1.350       .  D
C154        H156   1.089       .  S
C157        H343   1.085       .  S
C157        C158   1.344       .  D
C158        H160   1.086       .  S
H159        C341   1.086       .  S
C161        H163   1.088       .  S
C161        C162   1.341       .  D
C162        H164   1.086       .  S
C165        H167   1.083       .  S
C165        C166   1.348       .  D
C166        H168   1.089       .  S
C169        H171   1.085       .  S
C169        C170   1.345       .  D
C170        C195   1.470       .  S
C170        H356   1.088       .  S
H172        C354   1.088       .  S
C173        C198   1.477   1_556  S
C173        H175   1.087       .  S
C173        C174   1.348   1_556  D
C174        H360   1.085       .  S
H176        C358   1.085       .  S
C177        C197   1.475   1_556  S
C177        H179   1.088       .  S
C177        C178   1.346   1_556  D
C178        H364   1.085       .  S
H180        C362   1.085       .  S
C181        C196   1.473       .  S
C181        H367   1.087       .  S
C181        C182   1.347       .  D
C182        H184   1.085       .  S
H183        C365   1.087   1_554  S
O185        V193   1.918       .  S
O186        V193   1.919       .  S
O187        V193   1.882       .  S
O187        C197   1.260   1_556  A
O188        V193   1.882       .  S
O188        C198   1.260   1_556  A
O189        V194   1.922       .  S
O190        V194   1.923       .  S
O191        V194   1.886       .  S
O191        C196   1.261       .  A
O192        V194   1.884       .  S
O192        C195   1.260       .  A
C199        C200   1.536       .  S
C199        C205   1.518       .  S
C199        C203   1.528       .  S
C199        C350   1.509       .  S
C200        H207   1.082       .  S
C201        C202   1.548   1_554  S
C201        C342   1.490   1_554  S
C202        C206   1.550       .  S
C202        C204   1.540       .  S
C202        H208   1.111       .  S
C204        C345   1.475       .  S
C205        H210   1.087       .  S
C206        C353   1.488       .  S
C211        C349   1.486       .  S
C211        C580   1.397   1_545  A
C211        C216   1.411       .  A
C212        C579   1.395       .  A
C212        C213   1.395       .  A
C212        H231   1.086       .  S
C213        C337   1.484       .  S
C213        C214   1.412       .  A
C214        C215   1.422       .  A
C214        C221   1.405       .  A
C215        C584   1.425       .  A
C215        C220   1.420       .  A
C216        C583   1.423   1_545  A
C216        C217   1.405       .  A
C217        C218   1.393       .  A
C217        H227   1.083       .  S
C218        C219   1.404       .  A
C218        H228   1.083       .  S
C219        C588   1.425   1_545  A
C219        C226   1.413       .  A
C220        C587   1.423       .  A
C220        C223   1.425       .  A
C221        C222   1.395       .  A
C221        H229   1.082       .  S
C222        C223   1.405       .  A
C222        H230   1.083       .  S
C223        C224   1.414       .  A
C224        C333   1.494       .  S
C224        C225   1.400       .  A
C225        C594   1.399       .  A
C225        H232   1.085       .  S
C226        C346   1.493       .  S
C226        C593   1.399   1_545  A
C233        C234   1.521       .  S
C233        C239   1.524       .  S
C233        C237   1.530       .  S
C233        C338   1.510       .  S
C234        H241   1.086       .  S
C235        C236   1.548       .  S
C235        C329   1.487       .  S
C236        C240   1.551       .  S
C236        C238   1.539       .  S
C236        H242   1.111       .  S
C238        C334   1.476       .  S
C239        H244   1.083       .  S
C240        C366   1.489       .  S
C245        C246   1.528       .  S
C245        C251   1.521       .  S
C245        C249   1.529   1_556  S
C245        C321   1.514       .  S
C246        H253   1.083       .  S
C247        C248   1.551       .  S
C247        C358   1.491       .  S
C248        C252   1.550       .  S
C248        C250   1.539       .  S
C248        H254   1.111       .  S
C250        C325   1.477       .  S
C251        H256   1.086       .  S
C252        C317   1.488       .  S
C257        C326   1.496       .  S
C257        C994   1.400       .  A
C257        C262   1.416       .  A
C258        C993   1.400       .  A
C258        C259   1.399       .  A
C258        H277   1.085       .  S
C259        C313   1.493       .  S
C259        C260   1.412       .  A
C260        C261   1.424       .  A
C260        C267   1.404       .  A
C261        C998   1.424       .  A
C261        C266   1.421       .  A
C262        C997   1.425       .  A
C262        C263   1.405       .  A
C263        C264   1.396       .  A
C263        H273   1.083       .  S
C264        C265   1.405       .  A
C264        H274   1.083       .  S
C265       C1002   1.423       .  A
C265        C272   1.413       .  A
C266       C1001   1.424       .  A
C266        C269   1.424       .  A
C267        C268   1.393       .  A
C267        H275   1.083       .  S
C268        C269   1.406       .  A
C268        H276   1.082       .  S
C269        C270   1.414       .  A
C270        C309   1.490       .  S
C270        C271   1.397       .  A
C271       C1008   1.395       .  A
C271        H278   1.085       .  S
C272        C322   1.485       .  S
C272       C1007   1.396       .  A
C279        C280   1.521       .  S
C279        C285   1.532       .  S
C279        C283   1.529   1_556  S
C279        C310   1.511       .  S
C280        H287   1.087       .  S
C281        C282   1.550       .  S
C281        C362   1.489       .  S
C282        C286   1.550       .  S
C282        C284   1.539       .  S
C282        H288   1.111       .  S
C284        C314   1.475       .  S
C285        H290   1.084       .  S
C286        C306   1.491       .  S
O291        V667   1.916       .  S
O292       V1035   1.918   1_455  S
O293       V1403   1.890   1_455  S
O294        V299   1.882       .  S
O295       V1036   1.920       .  S
O295        C304   1.268       .  A
O296        V668   1.917   1_455  S
O296        C303   1.268   1_556  A
O297        V300   1.885       .  S
O297        C302   1.261   1_556  A
O298       V1404   1.894       .  S
O298        C301   1.265   1_556  A
V299        O659   1.923       .  S
V299       O1028   1.921       .  S
V299       O1397   1.885       .  S
V299        V852   2.088       .  T
V300       O1031   1.921   1_455  S
V300        O664   1.918       .  S
V300       O1402   1.886   1_455  S
V300        V851   2.088   1_556  T
C301        C305   1.481       .  S
C302        C318   1.477   1_554  S
C303        C341   1.471       .  S
C304        C330   1.470       .  S
C309        H311   1.082       .  S
C309        C310   1.348       .  D
C310        H312   1.088       .  S
C313        H315   1.086       .  S
C313        C314   1.343       .  D
C314        H316   1.088       .  S
C317        H319   1.086       .  S
C318        H320   1.087       .  S
C321        H323   1.089       .  S
C321        C322   1.348       .  D
C322        H324   1.083       .  S
C325        H327   1.088       .  S
C325        C326   1.345       .  D
C326        H328   1.086       .  S
C329        C330   1.342       .  D
C330        H332   1.087   1_556  S
C333        H335   1.086       .  S
C333        C334   1.344       .  D
C334        H336   1.088       .  S
C337        H339   1.083       .  S
C337        C338   1.348       .  D
C338        H340   1.089       .  S
C341        C342   1.344   1_554  D
C342        H344   1.086       .  S
C345        H347   1.088       .  S
C345        C346   1.343       .  D
C346        H348   1.086       .  S
C349        H351   1.083       .  S
C349        C350   1.344       .  D
C350        H352   1.089       .  S
C353        H355   1.085       .  S
C353        C354   1.346   1_556  D
C357        H359   1.087       .  S
C357        C358   1.346       .  D
C361        H363   1.088       .  S
C361        C362   1.345       .  D
C365        C366   1.346       .  D
C366        H368   1.085       .  S
O369        V377   1.922       .  S
O369        C563   1.268       .  A
O370        V377   1.921       .  S
O370        C564   1.268       .  A
O371        V377   1.882       .  S
O371        C381   1.261       .  A
O372        V377   1.883       .  S
O372        C382   1.260       .  A
O373        V378   1.917       .  S
O373        C566   1.268   1_554  A
O374        V378   1.922       .  S
O374        C565   1.268   1_554  A
O375        V378   1.886       .  S
O375        C380   1.261       .  A
O376        V378   1.884       .  S
O376        C379   1.261   1_554  A
V377        V562   2.088       .  T
V378        V561   2.088   1_554  T
C379        O553   1.268       .  A
C379        C722   1.472       .  S
C380        O554   1.268   1_554  A
C380        C733   1.475       .  S
C381        O558   1.267       .  A
C381        C729   1.472       .  S
C382        O557   1.267       .  A
C382        C725   1.468       .  S
C383        C384   1.533       .  S
C383        C389   1.516       .  S
C383        C387   1.528   1_554  S
C383        C534   1.509       .  S
C384        H391   1.082       .  S
C384        C569   1.375   1_554  D
C385        C386   1.548       .  S
C385        C568   1.375       .  D
C385        C526   1.490       .  S
C386        C390   1.554       .  S
C386        C388   1.542       .  S
C386        H392   1.111       .  S
C387        H577   1.088       .  S
C387        C572   1.361       .  D
C388        C571   1.362       .  D
C388        C529   1.476       .  S
C389        H394   1.087       .  S
C389        C574   1.367   1_554  D
C390        C573   1.367       .  D
C390        C537   1.492       .  S
H393        C571   1.088       .  S
C395        C533   1.486       .  S
C395        C400   1.412       .  A
C396        C397   1.394       .  A
C396        H415   1.086       .  S
C397        C521   1.486       .  S
C397        C398   1.414       .  A
C398        C399   1.423       .  A
C398        C405   1.405       .  A
C399        C404   1.420       .  A
C400        C401   1.405       .  A
C401        C402   1.393       .  A
C401        H411   1.082       .  S
C402        C403   1.404       .  A
C402        H412   1.083       .  S
C403        C410   1.412       .  A
C404        C407   1.425       .  A
C405        C406   1.396       .  A
C405        H413   1.082       .  S
C406        C407   1.405       .  A
C406        H414   1.083       .  S
C407        C408   1.415       .  A
C408        C517   1.494       .  S
C408        C409   1.400   1_565  A
C409        H416   1.085       .  S
C410        C530   1.491       .  S
C417        C418   1.517       .  S
C417        C423   1.527       .  S
C417        C421   1.532       .  S
C417        C522   1.508       .  S
C418        H425   1.086       .  S
C418        C603   1.369       .  D
C419        C420   1.549       .  S
C419        C602   1.366       .  D
C419        C513   1.478       .  S
C420        C424   1.552       .  S
C420        C422   1.538       .  S
C420        H426   1.111       .  S
C421        H611   1.088       .  S
C421        C606   1.362   1_554  D
C422        C605   1.363       .  D
C422        C518   1.477       .  S
C423        H428   1.083       .  S
C423        C608   1.374       .  D
C424        C607   1.374       .  D
C424        C550   1.493       .  S
H427        C605   1.087       .  S
C429        C430   1.525       .  S
C429        C435   1.522       .  S
C429        C433   1.533       .  S
C429        C505   1.513       .  S
C430        H437   1.084       .  S
C430        C615   1.370       .  D
C431        C432   1.546       .  S
C431        C614   1.372   1_554  D
C431        C542   1.487       .  S
C432        C436   1.549       .  S
C432        C434   1.538       .  S
C432        H438   1.111       .  S
C433        H623   1.088       .  S
C433        C618   1.363       .  D
C434        C617   1.362       .  D
C434        C509   1.476       .  S
C435        H440   1.086       .  S
C435        C620   1.373       .  D
C436        C619   1.374   1_554  D
C436        C501   1.489       .  S
H439        C617   1.088       .  S
C441        C510   1.494       .  S
C441       C1178   1.399       .  A
C441        C446   1.414       .  A
C442       C1177   1.401       .  A
C442        C443   1.398       .  A
C442        H461   1.085       .  S
C443        C497   1.486       .  S
C443        C444   1.409       .  A
C444        C445   1.422       .  A
C444        C451   1.405       .  A
C445       C1182   1.426       .  A
C445        C450   1.420       .  A
C446       C1181   1.425       .  A
C446        C447   1.405       .  A
C447        C448   1.395       .  A
C447        H457   1.083       .  S
C448        C449   1.405       .  A
C448        H458   1.082       .  S
C449       C1186   1.424       .  A
C449        C456   1.413       .  A
C450       C1185   1.423       .  A
C450        C453   1.425       .  A
C451        C452   1.393       .  A
C451        H459   1.083       .  S
C452        C453   1.404       .  A
C452        H460   1.082       .  S
C453        C454   1.413       .  A
C454        C493   1.488       .  S
C454        C455   1.395       .  A
C455       C1192   1.394       .  A
C455        H462   1.086       .  S
C456        C506   1.486       .  S
C456       C1191   1.394       .  A
C463        C464   1.514       .  S
C463        C469   1.531       .  S
C463        C467   1.529       .  S
C463        C494   1.509       .  S
C464        H471   1.087       .  S
C464        C649   1.368       .  D
C465        C466   1.551       .  S
C465        C648   1.367   1_554  D
C465        C546   1.491       .  S
C466        C470   1.549       .  S
C466        C468   1.538       .  S
C466        H472   1.111       .  S
C467        H657   1.088       .  S
C467        C652   1.361       .  D
C468        C651   1.360       .  D
C468        C498   1.471       .  S
C469        H474   1.082       .  S
C469        C654   1.377       .  D
C470        C653   1.377   1_554  D
C470        C490   1.490       .  S
H473        C651   1.088       .  S
O475        C669   1.269   1_554  A
O476       V1219   1.917   1_565  S
O476        C670   1.268       .  A
O477        V851   1.884       .  S
O477        C671   1.260   1_554  A
O478        V483   1.885   1_565  S
O478        C672   1.261       .  A
O479       V1220   1.919   1_565  S
O479        C488   1.268       .  A
O480        C487   1.269       .  A
O481        V484   1.882   1_565  S
O481        C486   1.259       .  A
O482        V852   1.884       .  S
O482        C485   1.260       .  A
V483       O1212   1.911   1_545  S
V483        O845   1.885       .  S
V483       V1404   2.088   1_554  T
V484       O1215   1.915   1_445  S
V484        O850   1.882   1_455  S
V484       V1403   2.088   1_455  T
C485        O659   1.269       .  A
C485        C489   1.474       .  S
C486        O660   1.268       .  A
C486        C502   1.470       .  S
C487        O661   1.260       .  A
C487        C525   1.474       .  S
C488        O662   1.263       .  A
C488        C514   1.484       .  S
C489        H675   1.087       .  S
C489        C674   1.344       .  D
C490        H676   1.086       .  S
C490        C673   1.344   1_554  D
H491        C673   1.086       .  S
H492        C674   1.086       .  S
C493        H495   1.083       .  S
C493        C494   1.348       .  D
C494        H496   1.089       .  S
C497        H499   1.086       .  S
C497        C498   1.340       .  D
C498        H500   1.088       .  S
C501        H503   1.086       .  S
C501        C686   1.344       .  D
C502        H504   1.087       .  S
C502        C685   1.342       .  D
C505        H507   1.089       .  S
C505        C506   1.350       .  D
C506        H508   1.083       .  S
C509        H511   1.088       .  S
C509        C510   1.346       .  D
C510        H512   1.086       .  S
C513        H699   1.088       .  S
C513        C514   1.346       .  D
C514        H516   1.086       .  S
H515        C697   1.086       .  S
C517        H519   1.086       .  S
C517        C518   1.345       .  D
C518        H520   1.088       .  S
C521        H523   1.084       .  S
C521        C522   1.347       .  D
C522        H524   1.089       .  S
C525        H711   1.087       .  S
C525        C526   1.343       .  D
C526        H528   1.086       .  S
H527        C709   1.087       .  S
C529        H531   1.088       .  S
C529        C530   1.342       .  D
C530        H532   1.086       .  S
C533        H535   1.082       .  S
C533        C534   1.347       .  D
C534        H536   1.089       .  S
C537        H539   1.085       .  S
C537        C538   1.349       .  D
C538        C563   1.475       .  S
C538        H724   1.088       .  S
H540        C722   1.088   1_554  S
C541        C566   1.469       .  S
C541        H543   1.087       .  S
C541        C542   1.344   1_556  D
C542        H728   1.086       .  S
H544        C726   1.085       .  S
C545        C565   1.472       .  S
C545        H547   1.088       .  S
C545        C546   1.347   1_556  D
C546        H732   1.085       .  S
H548        C730   1.085       .  S
C549        C564   1.475       .  S
C549        H735   1.087       .  S
C549        C550   1.347       .  D
C550        H552   1.085       .  S
H551        C733   1.086       .  S
O553        V561   1.921       .  S
O554        V561   1.920       .  S
O555        V561   1.882       .  S
O555        C565   1.260       .  A
O556        V561   1.882       .  S
O556        C566   1.260       .  A
O557        V562   1.916       .  S
O558        V562   1.921       .  S
O559        V562   1.887       .  S
O559        C564   1.261       .  A
O560        V562   1.887       .  S
O560        C563   1.262       .  A
C567        C568   1.534       .  S
C567        C573   1.515       .  S
C567        C571   1.529       .  S
C567        C718   1.511       .  S
C568        H575   1.083       .  S
C569        C570   1.547       .  S
C569        C710   1.489       .  S
C570        C574   1.550       .  S
C570        C572   1.539       .  S
C570        H576   1.111       .  S
C572        C713   1.472       .  S
C573        H578   1.087       .  S
C574        C721   1.487       .  S
C579        C717   1.489       .  S
C579        C584   1.414       .  A
C580        C581   1.396       .  A
C580        H599   1.085       .  S
C581        C705   1.491       .  S
C581        C582   1.417       .  A
C582        C583   1.425       .  A
C582        C589   1.405       .  A
C583        C588   1.421       .  A
C584        C585   1.405       .  A
C585        C586   1.393       .  A
C585        H595   1.082       .  S
C586        C587   1.405       .  A
C586        H596   1.083       .  S
C587        C594   1.411       .  A
C588        C591   1.424       .  A
C589        C590   1.397       .  A
C589        H597   1.082       .  S
C590        C591   1.406       .  A
C590        H598   1.083       .  S
C591        C592   1.415       .  A
C592        C701   1.493       .  S
C592        C593   1.400       .  A
C593        H600   1.085       .  S
C594        C714   1.489       .  S
C601        C602   1.524       .  S
C601        C607   1.529       .  S
C601        C605   1.534       .  S
C601        C706   1.516       .  S
C602        H609   1.087       .  S
C603        C604   1.550   1_554  S
C603        C697   1.489   1_554  S
C604        C608   1.553   1_556  S
C604        C606   1.537       .  S
C604        H610   1.111       .  S
C606        C702   1.475       .  S
C607        H612   1.084       .  S
C608        C734   1.492   1_554  S
C613        C614   1.528       .  S
C613        C619   1.524       .  S
C613        C617   1.532   1_556  S
C613        C689   1.516       .  S
C614        H621   1.083       .  S
C615        C616   1.547       .  S
C615        C726   1.485       .  S
C616        C620   1.547       .  S
C616        C618   1.536       .  S
C616        H622   1.111       .  S
C618        C693   1.474       .  S
C619        H624   1.086       .  S
C620        C685   1.485       .  S
C625        C694   1.493       .  S
C625       C1362   1.399       .  A
C625        C630   1.414       .  A
C626       C1361   1.399       .  A
C626        C627   1.399       .  A
C626        H645   1.085       .  S
C627        C681   1.491       .  S
C627        C628   1.411       .  A
C628        C629   1.424       .  A
C628        C635   1.405       .  A
C629       C1366   1.424       .  A
C629        C634   1.419       .  A
C630       C1365   1.424       .  A
C630        C631   1.406       .  A
C631        C632   1.396       .  A
C631        H641   1.082       .  S
C632        C633   1.405       .  A
C632        H642   1.082       .  S
C633       C1370   1.424       .  A
C633        C640   1.414       .  A
C634       C1369   1.423       .  A
C634        C637   1.424       .  A
C635        C636   1.394       .  A
C635        H643   1.083       .  S
C636        C637   1.405       .  A
C636        H644   1.082       .  S
C637        C638   1.414       .  A
C638        C677   1.488       .  S
C638        C639   1.397       .  A
C639       C1376   1.394       .  A
C639        H646   1.086       .  S
C640        C690   1.488       .  S
C640       C1375   1.395       .  A
C647        C648   1.516       .  S
C647        C653   1.533       .  S
C647        C651   1.528   1_556  S
C647        C678   1.508       .  S
C648        H655   1.087       .  S
C649        C650   1.553       .  S
C649        C730   1.491       .  S
C650        C654   1.551       .  S
C650        C652   1.539       .  S
C650        H656   1.111       .  S
C652        C682   1.473       .  S
C653        H658   1.083       .  S
C654        C674   1.492       .  S
O660       V1403   1.917   1_465  S
O661       V1035   1.884   1_455  S
O662        V667   1.888   1_565  S
O663       V1404   1.916   1_565  S
O663        C672   1.267   1_556  A
O664        C671   1.268       .  A
O665        V668   1.886   1_465  S
O665        C670   1.260   1_556  A
O666       V1036   1.886       .  S
O666        C669   1.260       .  A
V667       O1396   1.916   1_545  S
V667       O1029   1.886       .  S
V667       V1220   2.088       .  T
V668       O1399   1.918   1_545  S
V668       O1034   1.889       .  S
V668       V1219   2.088   1_656  T
C669        C673   1.475       .  S
C670        C686   1.472       .  S
C671        C709   1.472   1_556  S
C672        C698   1.471       .  S
C677        H679   1.083       .  S
C677        C678   1.347       .  D
C678        H680   1.089       .  S
C681        H683   1.086       .  S
C681        C682   1.342       .  D
C682        H684   1.088       .  S
C685        H687   1.086       .  S
C686        H688   1.087   1_554  S
C689        H691   1.088       .  S
C689        C690   1.350       .  D
C690        H692   1.083       .  S
C693        H695   1.088       .  S
C693        C694   1.345       .  D
C694        H696   1.086       .  S
C697        C698   1.345   1_556  D
C698        H700   1.087       .  S
C701        H703   1.086       .  S
C701        C702   1.344       .  D
C702        H704   1.088       .  S
C705        H707   1.084       .  S
C705        C706   1.351       .  D
C706        H708   1.088       .  S
C709        C710   1.343   1_554  D
C710        H712   1.086       .  S
C713        H715   1.088       .  S
C713        C714   1.341       .  D
C714        H716   1.086       .  S
C717        H719   1.083       .  S
C717        C718   1.348       .  D
C718        H720   1.088       .  S
C721        H723   1.085       .  S
C721        C722   1.345       .  D
C725        H727   1.087       .  S
C725        C726   1.344       .  D
C729        H731   1.088       .  S
C729        C730   1.347       .  D
C733        C734   1.346   1_554  D
C734        H736   1.086       .  S
O737        V745   1.923       .  S
O737        C931   1.268       .  A
O738        V745   1.923       .  S
O738        C932   1.268       .  A
O739        V745   1.884       .  S
O739        C749   1.261       .  A
O740        V745   1.885       .  S
O740        C750   1.261       .  A
O741        V746   1.926       .  S
O741        C934   1.269   1_554  A
O742        V746   1.927       .  S
O742        C933   1.269       .  A
O743        V746   1.885       .  S
O743        C748   1.261       .  A
O744        V746   1.883       .  S
O744        C747   1.260       .  A
V745        V930   2.088       .  T
V746        V929   2.088   1_554  T
C747        O921   1.268   1_554  A
C747       C1090   1.472       .  S
C748        O922   1.268   1_554  A
C748       C1101   1.474       .  S
C749        O926   1.268       .  A
C749       C1097   1.473       .  S
C750        O925   1.268       .  A
C750       C1093   1.473       .  S
C751        C752   1.529       .  S
C751        C757   1.518       .  S
C751        C755   1.528       .  S
C751        C902   1.510       .  S
C752        H759   1.082       .  S
C752        C937   1.375       .  D
C753        C754   1.549       .  S
C753        C936   1.378       .  D
C753        C894   1.491       .  S
C754        C758   1.550       .  S
C754        C756   1.539       .  S
C754        H760   1.111       .  S
C755        H945   1.088       .  S
C755        C940   1.361   1_554  D
C756        C939   1.360       .  D
C756        C897   1.474       .  S
C757        H762   1.087       .  S
C757        C942   1.369   1_554  D
C758        C941   1.369       .  D
C758        C905   1.491       .  S
H761        C939   1.088       .  S
C763        C901   1.486       .  S
C763       C1132   1.395   1_545  A
C763        C768   1.413       .  A
C764       C1131   1.395       .  A
C764        C765   1.395       .  A
C764        H783   1.086       .  S
C765        C889   1.487       .  S
C765        C766   1.415       .  A
C766        C767   1.424       .  A
C766        C773   1.405       .  A
C767       C1136   1.423       .  A
C767        C772   1.420       .  A
C768       C1135   1.424   1_545  A
C768        C769   1.404       .  A
C769        C770   1.395       .  A
C769        H779   1.083       .  S
C770        C771   1.406       .  A
C770        H780   1.082       .  S
C771       C1140   1.424   1_545  A
C771        C778   1.414       .  A
C772       C1139   1.424       .  A
C772        C775   1.424       .  A
C773        C774   1.396       .  A
C773        H781   1.082       .  S
C774        C775   1.406       .  A
C774        H782   1.082       .  S
C775        C776   1.415       .  A
C776        C885   1.494       .  S
C776        C777   1.402       .  A
C777       C1146   1.397       .  A
C777        H784   1.085       .  S
C778        C898   1.494       .  S
C778       C1145   1.402       .  A
C785        C786   1.521       .  S
C785        C791   1.524       .  S
C785        C789   1.531   1_554  S
C785        C890   1.511       .  S
C786        H793   1.086       .  S
C786        C971   1.371   1_554  D
C787        C788   1.549       .  S
C787        C970   1.373       .  D
C787        C881   1.490       .  S
C788        C792   1.553       .  S
C788        C790   1.538       .  S
C788        H794   1.111       .  S
C789        H979   1.088       .  S
C789        C974   1.363       .  D
C790        C973   1.362       .  D
C790        C886   1.475       .  S
C791        H796   1.084       .  S
C791        C976   1.372   1_554  D
C792        C975   1.373       .  D
C792        C918   1.493       .  S
H795        C973   1.088       .  S
C797        C798   1.527       .  S
C797        C803   1.522       .  S
C797        C801   1.531       .  S
C797        C873   1.513       .  S
C798        H805   1.083       .  S
C798        C983   1.372       .  D
C799        C800   1.552       .  S
C799        C982   1.373   1_554  D
C799        C910   1.494       .  S
C800        C804   1.550       .  S
C800        C802   1.540       .  S
C800        H806   1.111       .  S
C801        H991   1.088       .  S
C801        C986   1.362       .  D
C802        C985   1.361       .  D
C802        C877   1.476       .  S
C803        H808   1.086       .  S
C803        C988   1.372       .  D
C804        C987   1.372   1_554  D
C804        C869   1.489       .  S
H807        C985   1.088   1_556  S
C809        C878   1.495       .  S
C809        C814   1.415       .  A
C810        C811   1.400   1_455  A
C810        H829   1.085       .  S
C811        C865   1.491       .  S
C811        C812   1.412       .  A
C812        C813   1.423   1_655  A
C812        C819   1.405       .  A
C813        C818   1.421       .  A
C814        C815   1.406       .  A
C815        C816   1.395       .  A
C815        H825   1.082       .  S
C816        C817   1.405       .  A
C816        H826   1.082       .  S
C817        C824   1.413       .  A
C818        C821   1.424   1_455  A
C819        C820   1.394       .  A
C819        H827   1.083       .  S
C820        C821   1.405       .  A
C820        H828   1.082       .  S
C821        C822   1.414       .  A
C822        C861   1.489       .  S
C822        C823   1.396   1_655  A
C823        H830   1.085       .  S
C824        C874   1.486       .  S
C831        C832   1.516       .  S
C831        C837   1.532       .  S
C831        C835   1.528       .  S
C831        C862   1.510       .  S
C832        H839   1.087       .  S
C832       C1017   1.367       .  D
C833        C834   1.553       .  S
C833       C1016   1.369   1_554  D
C833        C914   1.493       .  S
C834        C838   1.552   1_554  S
C834        C836   1.540       .  S
C834        H840   1.110       .  S
C835       H1025   1.088       .  S
C835       C1020   1.361       .  D
C836       C1019   1.362       .  D
C836        C866   1.475       .  S
C837        H842   1.082       .  S
C837       C1022   1.377       .  D
C838       C1021   1.370       .  D
C838        C858   1.482   1_556  S
H841       C1019   1.088       .  S
O843       V1219   1.918   1_655  S
O843       C1037   1.268       .  A
O844       C1038   1.268   1_554  A
O845       C1039   1.261       .  A
O846        V851   1.884   1_655  S
O846       C1040   1.260       .  A
O847        C856   1.269       .  A
O848       V1220   1.918       .  S
O848        C855   1.268       .  A
O849        V852   1.882       .  S
O849        C854   1.260       .  A
O850        C853   1.259       .  A
V851       O1211   1.923   1_455  S
V852       O1216   1.921       .  S
C853       O1027   1.269       .  A
C853        C857   1.472       .  S
C854       O1028   1.269       .  A
C854        C870   1.472       .  S
C855       O1029   1.260       .  A
C855        C893   1.473       .  S
C856       O1030   1.260       .  A
C856        C882   1.473       .  S
C857       H1043   1.086       .  S
C857       C1042   1.343       .  D
C858       H1044   1.087   1_554  S
C858       C1041   1.347       .  D
H859       C1041   1.086       .  S
H860       C1042   1.086       .  S
C861        H863   1.083       .  S
C861        C862   1.348       .  D
C862        H864   1.089       .  S
C865        H867   1.086       .  S
C865        C866   1.342       .  D
C866        H868   1.088       .  S
C869        H871   1.086       .  S
C869       C1054   1.344   1_554  D
C870        H872   1.087       .  S
C870       C1053   1.343       .  D
C873        H875   1.089       .  S
C873        C874   1.349       .  D
C874        H876   1.083       .  S
C877        H879   1.088       .  S
C877        C878   1.344       .  D
C878        H880   1.086       .  S
C881       H1067   1.086       .  S
C881        C882   1.343       .  D
C882        H884   1.087       .  S
H883       C1065   1.085       .  S
C885        H887   1.086       .  S
C885        C886   1.344       .  D
C886        H888   1.088       .  S
C889        H891   1.083       .  S
C889        C890   1.350       .  D
C890        H892   1.089       .  S
C893       H1079   1.085       .  S
C893        C894   1.344       .  D
C894        H896   1.086       .  S
H895       C1077   1.086       .  S
C897        H899   1.088       .  S
C897        C898   1.343       .  D
C898        H900   1.086       .  S
C901        H903   1.082       .  S
C901        C902   1.349       .  D
C902        H904   1.089       .  S
C905        H907   1.085       .  S
C905        C906   1.346       .  D
C906        C931   1.473       .  S
C906       H1092   1.087       .  S
H908       C1090   1.088       .  S
C909        C934   1.475       .  S
C909        H911   1.087       .  S
C909        C910   1.347   1_556  D
C910       H1096   1.085       .  S
H912       C1094   1.085       .  S
C913        C933   1.476   1_556  S
C913        H915   1.088       .  S
C913        C914   1.347   1_556  D
C914       H1100   1.085       .  S
H916       C1098   1.085       .  S
C917        C932   1.475       .  S
C917       H1103   1.087       .  S
C917        C918   1.347       .  D
C918        H920   1.085       .  S
H919       C1101   1.087       .  S
O921        V929   1.921       .  S
O922        V929   1.921       .  S
O923        V929   1.881       .  S
O923        C933   1.260   1_556  A
O924        V929   1.882       .  S
O924        C934   1.260       .  A
O925        V930   1.920       .  S
O926        V930   1.921       .  S
O927        V930   1.884       .  S
O927        C932   1.261       .  A
O928        V930   1.883       .  S
O928        C931   1.260       .  A
C935        C936   1.533       .  S
C935        C941   1.519       .  S
C935        C939   1.528       .  S
C935       C1086   1.512       .  S
C936        H943   1.081       .  S
C937        C938   1.549   1_554  S
C937       C1078   1.489   1_554  S
C938        C942   1.551       .  S
C938        C940   1.540       .  S
C938        H944   1.111       .  S
C940       C1081   1.474       .  S
C941        H946   1.087       .  S
C942       C1089   1.490       .  S
C947       C1085   1.486       .  S
C947       C1316   1.394   1_545  A
C947        C952   1.410       .  A
C948       C1315   1.397       .  A
C948        C949   1.394       .  A
C948        H967   1.085       .  S
C949       C1073   1.487       .  S
C949        C950   1.413       .  A
C950        C951   1.424       .  A
C950        C957   1.405       .  A
C951       C1320   1.425       .  A
C951        C956   1.421       .  A
C952       C1319   1.423   1_545  A
C952        C953   1.404       .  A
C953        C954   1.393       .  A
C953        H963   1.083       .  S
C954        C955   1.405       .  A
C954        H964   1.083       .  S
C955       C1324   1.424   1_545  A
C955        C962   1.412       .  A
C956       C1323   1.424       .  A
C956        C959   1.425       .  A
C957        C958   1.395       .  A
C957        H965   1.083       .  S
C958        C959   1.405       .  A
C958        H966   1.083       .  S
C959        C960   1.414       .  A
C960       C1069   1.493       .  S
C960        C961   1.400       .  A
C961       C1330   1.400       .  A
C961        H968   1.085       .  S
C962       C1082   1.492       .  S
C962       C1329   1.399       .  A
C969        C970   1.522       .  S
C969        C975   1.526       .  S
C969        C973   1.531       .  S
C969       C1074   1.514       .  S
C970        H977   1.086       .  S
C971        C972   1.551       .  S
C971       C1065   1.492       .  S
C972        C976   1.554       .  S
C972        C974   1.540       .  S
C972        H978   1.111       .  S
C974       C1070   1.477       .  S
C975        H980   1.083       .  S
C976       C1102   1.492       .  S
C981        C982   1.528       .  S
C981        C987   1.522       .  S
C981        C985   1.530   1_556  S
C981       C1057   1.514       .  S
C982        H989   1.083       .  S
C983        C984   1.551       .  S
C983       C1094   1.491       .  S
C984        C988   1.549       .  S
C984        C986   1.538       .  S
C984        H990   1.111       .  S
C986       C1061   1.475       .  S
C987        H992   1.086       .  S
C988       C1053   1.489       .  S
C993       C1062   1.493       .  S
C993        C998   1.414       .  A
C994        C995   1.398   1_455  A
C994       H1013   1.085       .  S
C995       C1049   1.490       .  S
C995        C996   1.410       .  A
C996        C997   1.423   1_655  A
C996       C1003   1.404       .  A
C997       C1002   1.421       .  A
C998        C999   1.406       .  A
C999       C1000   1.396       .  A
C999       H1009   1.083       .  S
C1000      C1001   1.405       .  A
C1000      H1010   1.083       .  S
C1001      C1008   1.413       .  A
C1002      C1005   1.425   1_455  A
C1003      C1004   1.393       .  A
C1003      H1011   1.083       .  S
C1004      C1005   1.405       .  A
C1004      H1012   1.082       .  S
C1005      C1006   1.415       .  A
C1006      C1045   1.492       .  S
C1006      C1007   1.397   1_655  A
C1007      H1014   1.085       .  S
C1008      C1058   1.487       .  S
C1015      C1016   1.519       .  S
C1015      C1021   1.533       .  S
C1015      C1019   1.529   1_556  S
C1015      C1046   1.512       .  S
C1016      H1023   1.087       .  S
C1017      C1018   1.553       .  S
C1017      C1098   1.491       .  S
C1018      C1022   1.548       .  S
C1018      C1020   1.540       .  S
C1018      H1024   1.111       .  S
C1020      C1050   1.473       .  S
C1021      H1026   1.084       .  S
C1022      C1042   1.491       .  S
O1027      V1403   1.921       .  S
O1030      V1035   1.882       .  S
O1031      C1040   1.268   1_556  A
O1032      V1404   1.916       .  S
O1032      C1039   1.267   1_556  A
O1033      V1036   1.883       .  S
O1033      C1038   1.260       .  A
O1034      C1037   1.263   1_556  A
V1035      O1395   1.921       .  S
V1036      O1400   1.918       .  S
C1037      C1041   1.485       .  S
C1038      C1054   1.472       .  S
C1039      C1077   1.470       .  S
C1040      C1066   1.474       .  S
C1045      H1047   1.082       .  S
C1045      C1046   1.348       .  D
C1046      H1048   1.088       .  S
C1049      H1051   1.086       .  S
C1049      C1050   1.341       .  D
C1050      H1052   1.088       .  S
C1053      H1055   1.086       .  S
C1054      H1056   1.087       .  S
C1057      H1059   1.089       .  S
C1057      C1058   1.348       .  D
C1058      H1060   1.083       .  S
C1061      H1063   1.088       .  S
C1061      C1062   1.344       .  D
C1062      H1064   1.086       .  S
C1065      C1066   1.345   1_556  D
C1066      H1068   1.087       .  S
C1069      H1071   1.086       .  S
C1069      C1070   1.344       .  D
C1070      H1072   1.088       .  S
C1073      H1075   1.083       .  S
C1073      C1074   1.349       .  D
C1074      H1076   1.089       .  S
C1077      C1078   1.343   1_554  D
C1078      H1080   1.086       .  S
C1081      H1083   1.088       .  S
C1081      C1082   1.343       .  D
C1082      H1084   1.086       .  S
C1085      H1087   1.083       .  S
C1085      C1086   1.347       .  D
C1086      H1088   1.089       .  S
C1089      H1091   1.085       .  S
C1089      C1090   1.346   1_556  D
C1093      H1095   1.087       .  S
C1093      C1094   1.347       .  D
C1097      H1099   1.088       .  S
C1097      C1098   1.347       .  D
C1101      C1102   1.347   1_554  D
C1102      H1104   1.085       .  S
O1105      V1113   1.922       .  S
O1105      C1299   1.268       .  A
O1106      V1113   1.922       .  S
O1106      C1300   1.268       .  A
O1107      V1113   1.882       .  S
O1107      C1117   1.261       .  A
O1108      V1113   1.882       .  S
O1108      C1118   1.260       .  A
O1109      V1114   1.918       .  S
O1109      C1302   1.267       .  A
O1110      V1114   1.920       .  S
O1110      C1301   1.268   1_554  A
O1111      V1114   1.889       .  S
O1111      C1116   1.262       .  A
O1112      V1114   1.886       .  S
O1112      C1115   1.261   1_554  A
V1113      V1298   2.088       .  T
V1114      V1297   2.088   1_554  T
C1115      O1289   1.267       .  A
C1115      C1458   1.471       .  S
C1116      O1290   1.268   1_554  A
C1116      C1469   1.476       .  S
C1117      O1294   1.268       .  A
C1117      C1465   1.474       .  S
C1118      O1293   1.268       .  A
C1118      C1461   1.473       .  S
C1119      C1120   1.533       .  S
C1119      C1125   1.515       .  S
C1119      C1123   1.529   1_554  S
C1119      C1270   1.509       .  S
C1120      H1127   1.083       .  S
C1120      C1305   1.375   1_554  D
C1121      C1122   1.549       .  S
C1121      C1304   1.377       .  D
C1121      C1262   1.492       .  S
C1122      C1126   1.553       .  S
C1122      C1124   1.541       .  S
C1122      H1128   1.111       .  S
C1123      H1313   1.088       .  S
C1123      C1308   1.361       .  D
C1124      C1307   1.361       .  D
C1124      C1265   1.474       .  S
C1125      H1130   1.087       .  S
C1125      C1310   1.367   1_554  D
C1126      C1309   1.367       .  D
C1126      C1273   1.492       .  S
H1129      C1307   1.088       .  S
C1131      C1269   1.485       .  S
C1131      C1136   1.411       .  A
C1132      C1133   1.394       .  A
C1132      H1151   1.086       .  S
C1133      C1257   1.484       .  S
C1133      C1134   1.412       .  A
C1134      C1135   1.423       .  A
C1134      C1141   1.405       .  A
C1135      C1140   1.420       .  A
C1136      C1137   1.404       .  A
C1137      C1138   1.392       .  A
C1137      H1147   1.082       .  S
C1138      C1139   1.404       .  A
C1138      H1148   1.083       .  S
C1139      C1146   1.410       .  A
C1140      C1143   1.424       .  A
C1141      C1142   1.394       .  A
C1141      H1149   1.082       .  S
C1142      C1143   1.405       .  A
C1142      H1150   1.083       .  S
C1143      C1144   1.412       .  A
C1144      C1253   1.494       .  S
C1144      C1145   1.399   1_565  A
C1145      H1152   1.084       .  S
C1146      C1266   1.489       .  S
C1153      C1154   1.518       .  S
C1153      C1159   1.525       .  S
C1153      C1157   1.532   1_554  S
C1153      C1258   1.509       .  S
C1154      H1161   1.086       .  S
C1154      C1339   1.371       .  D
C1155      C1156   1.553       .  S
C1155      C1338   1.367       .  D
C1155      C1249   1.478       .  S
C1156      C1160   1.554       .  S
C1156      C1158   1.540       .  S
C1156      H1162   1.111       .  S
C1157      H1347   1.088       .  S
C1157      C1342   1.362       .  D
C1158      C1341   1.360       .  D
C1158      C1254   1.478       .  S
C1159      H1164   1.084       .  S
C1159      C1344   1.372   1_554  D
C1160      C1343   1.372       .  D
C1160      C1286   1.493       .  S
H1163      C1341   1.087       .  S
C1165      C1166   1.526       .  S
C1165      C1171   1.520       .  S
C1165      C1169   1.531       .  S
C1165      C1241   1.510       .  S
C1166      H1173   1.084       .  S
C1166      C1351   1.372       .  D
C1167      C1168   1.550       .  S
C1167      C1350   1.370   1_554  D
C1167      C1278   1.489       .  S
C1168      C1172   1.551       .  S
C1168      C1170   1.542       .  S
C1168      H1174   1.111       .  S
C1169      H1359   1.088       .  S
C1169      C1354   1.362       .  D
C1170      C1353   1.362       .  D
C1170      C1245   1.479       .  S
C1171      H1176   1.086       .  S
C1171      C1356   1.371       .  D
C1172      C1355   1.373   1_554  D
C1172      C1237   1.489       .  S
H1175      C1353   1.088       .  S
C1177      C1246   1.498       .  S
C1177      C1182   1.416       .  A
C1178      C1179   1.398   1_455  A
C1178      H1197   1.085       .  S
C1179      C1233   1.492       .  S
C1179      C1180   1.413       .  A
C1180      C1181   1.424   1_655  A
C1180      C1187   1.405       .  A
C1181      C1186   1.421       .  A
C1182      C1183   1.405       .  A
C1183      C1184   1.396       .  A
C1183      H1193   1.082       .  S
C1184      C1185   1.405       .  A
C1184      H1194   1.082       .  S
C1185      C1192   1.413       .  A
C1186      C1189   1.425   1_455  A
C1187      C1188   1.395       .  A
C1187      H1195   1.083       .  S
C1188      C1189   1.405       .  A
C1188      H1196   1.082       .  S
C1189      C1190   1.415       .  A
C1190      C1229   1.491       .  S
C1190      C1191   1.396   1_655  A
C1191      H1198   1.085       .  S
C1192      C1242   1.485       .  S
C1199      C1200   1.516       .  S
C1199      C1205   1.531       .  S
C1199      C1203   1.530       .  S
C1199      C1230   1.511       .  S
C1200      H1207   1.087       .  S
C1200      C1385   1.369       .  D
C1201      C1202   1.553       .  S
C1201      C1384   1.371   1_554  D
C1201      C1282   1.492       .  S
C1202      C1206   1.553       .  S
C1202      C1204   1.539       .  S
C1202      H1208   1.111       .  S
C1203      H1393   1.088       .  S
C1203      C1388   1.362       .  D
C1204      C1387   1.361       .  D
C1204      C1234   1.475       .  S
C1205      H1210   1.082       .  S
C1205      C1390   1.376       .  D
C1206      C1389   1.374   1_554  D
C1206      C1226   1.493       .  S
H1209      C1387   1.088       .  S
O1211      C1405   1.269   1_554  A
O1212      C1406   1.266       .  A
O1213      C1407   1.259   1_554  A
O1214      V1219   1.884   1_665  S
O1214      C1408   1.260       .  A
O1215      C1224   1.267       .  A
O1216      C1223   1.269       .  A
O1217      V1220   1.885   1_565  S
O1217      C1222   1.260       .  A
O1218      C1221   1.260       .  A
C1221      O1395   1.269       .  A
C1221      C1225   1.474       .  S
C1222      O1396   1.268       .  A
C1222      C1238   1.471       .  S
C1223      O1397   1.260       .  A
C1223      C1261   1.475       .  S
C1224      O1398   1.264       .  A
C1224      C1250   1.483       .  S
C1225      H1411   1.087       .  S
C1225      C1410   1.344       .  D
C1226      H1412   1.085       .  S
C1226      C1409   1.347   1_554  D
H1227      C1409   1.087       .  S
H1228      C1410   1.086       .  S
C1229      H1231   1.082       .  S
C1229      C1230   1.350       .  D
C1230      H1232   1.089       .  S
C1233      H1235   1.086       .  S
C1233      C1234   1.344       .  D
C1234      H1236   1.088       .  S
C1237      H1239   1.086       .  S
C1237      C1422   1.346       .  D
C1238      H1240   1.087       .  S
C1238      C1421   1.344       .  D
C1241      H1243   1.089       .  S
C1241      C1242   1.348       .  D
C1242      H1244   1.084       .  S
C1245      H1247   1.088       .  S
C1245      C1246   1.346       .  D
C1246      H1248   1.086       .  S
C1249      H1435   1.087       .  S
C1249      C1250   1.345       .  D
C1250      H1252   1.086       .  S
H1251      C1433   1.086       .  S
C1253      H1255   1.086       .  S
C1253      C1254   1.344       .  D
C1254      H1256   1.088       .  S
C1257      H1259   1.084       .  S
C1257      C1258   1.346       .  D
C1258      H1260   1.089       .  S
C1261      H1447   1.087       .  S
C1261      C1262   1.344       .  D
C1262      H1264   1.086       .  S
H1263      C1445   1.087   1_554  S
C1265      H1267   1.088       .  S
C1265      C1266   1.341       .  D
C1266      H1268   1.086       .  S
C1269      H1271   1.083       .  S
C1269      C1270   1.346       .  D
C1270      H1272   1.089       .  S
C1273      H1275   1.085       .  S
C1273      C1274   1.348       .  D
C1274      C1299   1.474       .  S
C1274      H1460   1.088       .  S
H1276      C1458   1.088   1_554  S
C1277      C1302   1.472   1_556  S
C1277      H1279   1.087       .  S
C1277      C1278   1.347   1_556  D
C1278      H1464   1.085       .  S
H1280      C1462   1.085       .  S
C1281      C1301   1.473       .  S
C1281      H1283   1.087       .  S
C1281      C1282   1.346   1_556  D
C1282      H1468   1.086       .  S
H1284      C1466   1.085       .  S
C1285      C1300   1.478       .  S
C1285      H1471   1.087       .  S
C1285      C1286   1.348       .  D
C1286      H1288   1.085       .  S
H1287      C1469   1.087       .  S
O1289      V1297   1.917       .  S
O1290      V1297   1.919       .  S
O1291      V1297   1.885       .  S
O1291      C1301   1.261       .  A
O1292      V1297   1.886       .  S
O1292      C1302   1.261   1_556  A
O1293      V1298   1.921       .  S
O1294      V1298   1.925       .  S
O1295      V1298   1.889       .  S
O1295      C1300   1.262       .  A
O1296      V1298   1.885       .  S
O1296      C1299   1.261       .  A
C1303      C1304   1.534       .  S
C1303      C1309   1.515       .  S
C1303      C1307   1.529       .  S
C1303      C1454   1.511       .  S
C1304      H1311   1.083       .  S
C1305      C1306   1.546       .  S
C1305      C1446   1.487       .  S
C1306      C1310   1.551       .  S
C1306      C1308   1.541       .  S
C1306      H1312   1.111       .  S
C1308      C1449   1.474       .  S
C1309      H1314   1.087       .  S
C1310      C1457   1.487       .  S
C1315      C1453   1.490       .  S
C1315      C1320   1.415       .  A
C1316      C1317   1.400       .  A
C1316      H1335   1.085       .  S
C1317      C1441   1.497       .  S
C1317      C1318   1.418       .  A
C1318      C1319   1.426       .  A
C1318      C1325   1.407       .  A
C1319      C1324   1.421       .  A
C1320      C1321   1.405       .  A
C1321      C1322   1.394       .  A
C1321      H1331   1.082       .  S
C1322      C1323   1.405       .  A
C1322      H1332   1.083       .  S
C1323      C1330   1.413       .  A
C1324      C1327   1.424       .  A
C1325      C1326   1.396       .  A
C1325      H1333   1.081       .  S
C1326      C1327   1.405       .  A
C1326      H1334   1.083       .  S
C1327      C1328   1.414       .  A
C1328      C1437   1.494       .  S
C1328      C1329   1.400   1_565  A
C1329      H1336   1.085       .  S
C1330      C1450   1.492       .  S
C1337      C1338   1.523       .  S
C1337      C1343   1.526       .  S
C1337      C1341   1.533       .  S
C1337      C1442   1.509       .  S
C1338      H1345   1.087       .  S
C1339      C1340   1.551   1_554  S
C1339      C1433   1.489   1_554  S
C1340      C1344   1.556       .  S
C1340      C1342   1.539       .  S
C1340      H1346   1.111       .  S
C1342      C1438   1.477       .  S
C1343      H1348   1.086       .  S
C1344      C1470   1.493       .  S
C1349      C1350   1.526       .  S
C1349      C1355   1.523       .  S
C1349      C1353   1.530   1_556  S
C1349      C1425   1.513       .  S
C1350      H1357   1.083       .  S
C1351      C1352   1.551       .  S
C1351      C1462   1.490       .  S
C1352      C1356   1.549       .  S
C1352      C1354   1.538       .  S
C1352      H1358   1.111       .  S
C1354      C1429   1.473       .  S
C1355      H1360   1.085       .  S
C1356      C1421   1.486       .  S
C1361      C1430   1.492       .  S
C1361      C1366   1.412       .  A
C1362      C1363   1.398   1_455  A
C1362      H1381   1.085   1_455  S
C1363      C1417   1.492       .  S
C1363      C1364   1.412       .  A
C1364      C1365   1.425   1_655  A
C1364      C1371   1.404       .  A
C1365      C1370   1.420       .  A
C1366      C1367   1.405       .  A
C1367      C1368   1.394       .  A
C1367      H1377   1.083       .  S
C1368      C1369   1.405       .  A
C1368      H1378   1.083       .  S
C1369      C1376   1.411       .  A
C1370      C1373   1.423   1_455  A
C1371      C1372   1.394       .  A
C1371      H1379   1.083       .  S
C1372      C1373   1.405       .  A
C1372      H1380   1.083       .  S
C1373      C1374   1.412       .  A
C1374      C1413   1.485       .  S
C1374      C1375   1.396   1_655  A
C1375      H1382   1.086       .  S
C1376      C1426   1.482       .  S
C1383      C1384   1.518       .  S
C1383      C1389   1.529       .  S
C1383      C1387   1.529   1_556  S
C1383      C1414   1.510       .  S
C1384      H1391   1.086       .  S
C1385      C1386   1.554       .  S
C1385      C1466   1.494       .  S
C1386      C1390   1.551       .  S
C1386      C1388   1.539       .  S
C1386      H1392   1.111       .  S
C1388      C1418   1.475       .  S
C1389      H1394   1.083       .  S
C1390      C1410   1.492       .  S
O1398      V1403   1.892   1_565  S
O1399      C1408   1.268   1_556  A
O1400      C1407   1.269       .  A
O1401      V1404   1.890   1_565  S
O1401      C1406   1.262   1_556  A
O1402      C1405   1.261       .  A
C1405      C1409   1.477       .  S
C1406      C1422   1.472       .  S
C1407      C1445   1.471       .  S
C1408      C1434   1.472       .  S
C1413      H1415   1.083       .  S
C1413      C1414   1.345       .  D
C1414      H1416   1.089       .  S
C1417      H1419   1.086       .  S
C1417      C1418   1.343       .  D
C1418      H1420   1.088       .  S
C1421      H1423   1.086       .  S
C1422      H1424   1.086   1_554  S
C1425      H1427   1.089       .  S
C1425      C1426   1.348       .  D
C1426      H1428   1.083       .  S
C1429      H1431   1.088       .  S
C1429      C1430   1.343       .  D
C1430      H1432   1.086       .  S
C1433      C1434   1.344   1_556  D
C1434      H1436   1.087       .  S
C1437      H1439   1.086       .  S
C1437      C1438   1.344       .  D
C1438      H1440   1.088       .  S
C1441      H1443   1.085       .  S
C1441      C1442   1.351       .  D
C1442      H1444   1.087       .  S
C1445      C1446   1.342       .  D
C1446      H1448   1.086       .  S
C1449      H1451   1.088       .  S
C1449      C1450   1.342       .  D
C1450      H1452   1.086       .  S
C1453      H1455   1.083       .  S
C1453      C1454   1.348       .  D
C1454      H1456   1.089       .  S
C1457      H1459   1.085       .  S
C1457      C1458   1.346       .  D
C1461      H1463   1.087       .  S
C1461      C1462   1.345       .  D
C1465      H1467   1.087       .  S
C1465      C1466   1.348       .  D
C1469      C1470   1.348   1_554  D
C1470      H1472   1.085       .  S
