geometry optimzed in LAMMPS
_audit_creation_date              2020-11-30 
_audit_creation_method            'lammps2cif' 
_symmetry_space_group_name_H-M    'P1' 
_symmetry_Int_Tables_number       1 
_symmetry_cell_setting            triclinic 
loop_ 
_symmetry_equiv_pos_as_xyz 
  x,y,z 
_cell_length_a                    24.06510025569123 
_cell_length_b                    23.348985914528857 
_cell_length_c                    22.062770340744144 
_cell_angle_alpha                 88.55037043052064 
_cell_angle_beta                  86.82411584263022 
_cell_angle_gamma                 90.49295501189508 
loop_ 
_atom_site_label 
_atom_site_type_symbol 
_atom_site_fract_x 
_atom_site_fract_y 
_atom_site_fract_z 
_atom_site_charge 
O1          O  0.17671490  0.29775451  0.04134890    -0.71100
O2          O  0.31672751  0.19735123  0.05430638    -0.72090
O3          O  0.29909114  0.31680769  0.05014637    -0.60700
O4          O  0.19086087  0.17892458  0.05375288    -0.69110
O5          O  0.19863117  0.18076765  0.45469645    -0.68670
O6          O  0.30996930  0.31636596  0.45132913    -0.59920
O7          O  0.31904016  0.19214549  0.45550080    -0.72430
O8          O  0.18888332  0.30692527  0.44318501    -0.71210
Cu9        Cu  0.24564582  0.24776058  0.05313243     1.04560
Cu10       Cu  0.25431437  0.24881831  0.44820322     1.04330
C11         C  0.15882525  0.31835486  0.49119291     0.95090
C12         C  0.34269889  0.18048400  0.00509332     0.94230
C13         C  0.31886886  0.34178759  0.00118117     0.86380
C14         C  0.17848506  0.15554248  0.50423517     0.92650
C15         C  0.16001275  0.08927678  0.50421327    -0.00650
C16         C  0.24895619  0.99676218  0.22658566     0.02400
C17         C  0.25060740  0.99935370  0.28780928     0.02400
C18         C  0.33579528  0.40808460  0.50106166    -0.00650
C19         C  0.09432231  0.33557213  0.48756611    -0.00650
C20         C  0.50307425  0.24465896  0.21456556     0.02400
C21         C  0.50057857  0.25705245  0.27543940     0.02400
C22         C  0.40765757  0.16512966  0.50373535    -0.00650
O23         O  0.07879967  0.04307717  0.44814397    -0.71100
O24         O  0.42168207  0.45937199  0.44867758    -0.72090
O25         O  0.45875073  0.08180162  0.44806491    -0.60700
O26         O  0.04062019  0.42206517  0.44483650    -0.69110
O27         O  0.05405248  0.42606409  0.04000235    -0.68670
O28         O  0.44621882  0.06813564  0.04439806    -0.59920
O29         O  0.42993043  0.43518085  0.04337427    -0.72430
O30         O  0.06360475  0.05300802  0.04350039    -0.71210
Cu31       Cu  0.00014262  0.00168382  0.44379220     1.04560
Cu32       Cu  0.99795192  0.99529041  0.04578186     1.04330
C33         C  0.09634260  0.06391108  0.49748343     0.95090
C34         C  0.40072645  0.43169073  0.49623164     0.94230
C35         C  0.43613014  0.10036136  0.49812346     0.86380
C36         C  0.06466909  0.39951225  0.49030022     0.92650
C37         C  0.42318774  0.19544254  0.32917404     0.25440
C38         C  0.45074168  0.24826017  0.32141745    -0.22670
C39         C  0.45113891  0.28072115  0.37451581     0.20340
C40         C  0.44758397  0.25435699  0.43241899     0.25380
C41         C  0.42810785  0.19698649  0.44149464    -0.22620
C42         C  0.41232018  0.17095605  0.38707243     0.20280
F43         F  0.38126061  0.12266407  0.39023750    -0.12580
F44         F  0.39677909  0.17199601  0.28353887    -0.14940
F45         F  0.46971853  0.28547655  0.47553562    -0.14940
F46         F  0.46838388  0.33584775  0.37060374    -0.12580
C47         C  0.44380923  0.16981261  0.17337261     0.25440
C48         C  0.45311503  0.22790579  0.18304854    -0.22670
C49         C  0.43424656  0.26713383  0.14014647     0.20340
C50         C  0.42040667  0.24820956  0.08306330     0.25380
C51         C  0.42363036  0.18953344  0.06722342    -0.22620
C52         C  0.42146066  0.15305744  0.11991387     0.20280
F53         F  0.39113907  0.10442925  0.12355047    -0.12580
F54         F  0.46380457  0.12865667  0.21078822    -0.14940
F55         F  0.39869543  0.28727598  0.04676452    -0.14940
F56         F  0.43729420  0.32424386  0.14996077    -0.12580
C57         C  0.08548720  0.34661229  0.36898914     0.25440
C58         C  0.08171439  0.31079332  0.42261970    -0.22670
C59         C  0.08273700  0.25202221  0.40799168     0.20340
C60         C  0.06661729  0.23283771  0.35156321     0.25380
C61         C  0.05145680  0.27201282  0.30690867    -0.22620
C62         C  0.06480047  0.32946920  0.31461823     0.20280
F63         F  0.04648811  0.37079984  0.27624079    -0.12580
F64         F  0.10746723  0.39932906  0.36770209    -0.14940
F65         F  0.05185833  0.17727183  0.34555404    -0.14940
F66         F  0.10308207  0.21313375  0.44552641    -0.12580
C67         C  0.05441302  0.22086848  0.11637576     0.25440
C68         C  0.05330752  0.25319717  0.16952034    -0.22670
C69         C  0.07890613  0.30669222  0.16208099     0.20340
C70         C  0.08659157  0.33297972  0.10466812     0.25380
C71         C  0.07069991  0.30625248  0.04993562    -0.22620
C72         C  0.05420764  0.24792337  0.05898749     0.20280
F73         F  0.03209713  0.21629933  0.01625659    -0.12580
F74         F  0.04469843  0.16385145  0.12016716    -0.14940
F75         F  0.11951202  0.38052684  0.10232484    -0.14940
F76         F  0.11227298  0.32491271  0.20484761    -0.12480
C77         C  0.31533565  0.42709693  0.32886338     0.25440
C78         C  0.26156073  0.44814784  0.32739603    -0.22670
C79         C  0.22742531  0.44277478  0.38131279     0.20340
C80         C  0.25089527  0.43541260  0.43743556     0.25380
C81         C  0.30870468  0.42679307  0.44103421    -0.22620
C82         C  0.33721025  0.41444483  0.38450130     0.20280
F83         F  0.38570040  0.38686706  0.38261534    -0.12580
F84         F  0.34936577  0.42439838  0.27809682    -0.14940
F85         F  0.21781282  0.44818418  0.48644737    -0.14940
F86         F  0.17610984  0.46550748  0.38256351    -0.12580
C87         C  0.26001968  0.40984126  0.09538311     0.25440
C88         C  0.30777875  0.43337799  0.06265504    -0.22670
C89         C  0.33588464  0.47395188  0.09565505     0.20340
C90         C  0.32893718  0.47747746  0.15889817     0.25380
C91         C  0.28036490  0.45524823  0.18874118    -0.22620
C92         C  0.24845718  0.41751738  0.15732409     0.20280
F93         F  0.20083063  0.39532269  0.18440464    -0.12580
F94         F  0.22148904  0.38196679  0.06709598    -0.14940
F95         F  0.36134321  0.51434605  0.18824018    -0.14940
F96         F  0.36147353  0.51733533  0.06471717    -0.12580
C97         C  0.27487686  0.05825472  0.37349489     0.25440
C98         C  0.24127239  0.05282103  0.32357932    -0.22670
C99         C  0.18855664  0.07642154  0.32971764     0.20340
C100        C  0.16682173  0.09013103  0.38716781     0.25380
C101        C  0.19197883  0.07287484  0.44199539    -0.22620
C102        C  0.24983142  0.06150932  0.43261530     0.20280
F103        F  0.28116838  0.04223915  0.47726240    -0.12580
F104        F  0.32808021  0.03985810  0.36754722    -0.14940
F105        F  0.12065842  0.12169365  0.38908557    -0.14940
F106        F  0.15616500  0.08347347  0.28197264    -0.12580
C107        C  0.23466075  0.07865795  0.08776585     0.25440
C108        C  0.18080726  0.06478453  0.06863703    -0.22670
C109        C  0.14441494  0.04602908  0.11980872     0.20340
C110        C  0.16546308  0.02117308  0.17179049     0.25380
C111        C  0.21838461  0.03689439  0.18802698    -0.22620
C112        C  0.24896611  0.07316427  0.14815962     0.20280
F113        F  0.29508632  0.09932623  0.16671266    -0.12580
F114        F  0.27105639  0.10688087  0.05111039    -0.14940
F115        F  0.13102120  0.99067878  0.21165101    -0.14940
F116        F  0.09647928  0.07316653  0.13469041    -0.12580
O117        O  0.17671660  0.29775680  0.54134848    -0.71100
O118        O  0.31672909  0.19735350  0.55430657    -0.72090
O119        O  0.29909300  0.31681015  0.55014666    -0.60700
O120        O  0.19086326  0.17892662  0.55375235    -0.69110
O121        O  0.19862859  0.18076560  0.95469705    -0.68670
O122        O  0.30996757  0.31636311  0.95132887    -0.59920
O123        O  0.31903799  0.19214271  0.95550065    -0.72430
O124        O  0.18888164  0.30692325  0.94318550    -0.71210
Cu125      Cu  0.24564765  0.24776290  0.55313229     1.04560
Cu126      Cu  0.25431231  0.24881585  0.94820339     1.04330
C127        C  0.15882362  0.31835283  0.99119344     0.95090
C128        C  0.34270068  0.18048632  0.50509362     0.94230
C129        C  0.31887069  0.34179024  0.50118154     0.86380
C130        C  0.17848230  0.15554055  0.00423577     0.92650
C131        C  0.16000971  0.08927479  0.00421389    -0.00650
C132        C  0.24895721  0.99676484  0.72658587     0.02400
C133        C  0.25060881  0.99935547  0.78780952     0.02400
C134        C  0.33579315  0.40808197  0.00106100    -0.00650
C135        C  0.09432070  0.33557027  0.98756676    -0.00650
C136        C  0.50307247  0.24466251  0.71456594     0.02400
C137        C  0.50057727  0.25705473  0.77544007     0.02400
C138        C  0.40765580  0.16512764  0.00373463    -0.00650
O139        O  0.07879763  0.04307476  0.94814351    -0.71100
O140        O  0.42167978  0.45936963  0.94867679    -0.72090
O141        O  0.45874854  0.08179979  0.94806325    -0.60700
O142        O  0.04061787  0.42206278  0.94483673    -0.69110
O143        O  0.05405457  0.42606564  0.54000224    -0.68670
O144        O  0.44622186  0.06813821  0.54439989    -0.59920
O145        O  0.42993264  0.43518322  0.54337506    -0.72430
O146        O  0.06360821  0.05300895  0.54350129    -0.71210
Cu147      Cu  0.00014040  0.00168155  0.94379143     1.04560
Cu148      Cu  0.99795462  0.99529228  0.54578275     1.04330
C149        C  0.09633982  0.06390929  0.99748304     0.95090
C150        C  0.40072424  0.43168830  0.99623087     0.94230
C151        C  0.43612775  0.10035925  0.99812184     0.86380
C152        C  0.06466701  0.39951031  0.99030058     0.92650
C153        C  0.42318505  0.19544566  0.82917367     0.25440
C154        C  0.45074053  0.24826255  0.82141862    -0.22670
C155        C  0.45113909  0.28072169  0.87451822     0.20340
C156        C  0.44758320  0.25435597  0.93242061     0.25380
C157        C  0.42810630  0.19698556  0.94149449    -0.22620
C158        C  0.41231855  0.17095683  0.88707132     0.20280
F159        F  0.38125914  0.12266479  0.89023471    -0.12580
F160        F  0.39677199  0.17200393  0.78353875    -0.14940
F161        F  0.46971727  0.28547424  0.97553853    -0.14940
F162        F  0.46838502  0.33584808  0.87060820    -0.12580
C163        C  0.44380645  0.16981672  0.67337450     0.25440
C164        C  0.45311300  0.22790992  0.68304933    -0.22670
C165        C  0.43424598  0.26713755  0.64014602     0.20340
C166        C  0.42040788  0.24821260  0.58306258     0.25380
C167        C  0.42363145  0.18953618  0.56722385    -0.22620
C168        C  0.42145995  0.15306082  0.61991490     0.20280
F169        F  0.39113978  0.10443175  0.62355046    -0.12580
F170        F  0.46379977  0.12866122  0.71079205    -0.14940
F171        F  0.39869793  0.28727868  0.54676250    -0.14940
F172        F  0.43729399  0.32424773  0.64995942    -0.12580
C173        C  0.08548733  0.34661124  0.86899033     0.25440
C174        C  0.08171316  0.31079173  0.92262032    -0.22670
C175        C  0.08273542  0.25202080  0.90799148     0.20340
C176        C  0.06661637  0.23283739  0.85156235     0.25380
C177        C  0.05145599  0.27201354  0.80690875    -0.22620
C178        C  0.06480029  0.32946955  0.81461922     0.20280
F179        F  0.04648787  0.37080114  0.77624295    -0.12580
F180        F  0.10746787  0.39932764  0.86770471    -0.14940
F181        F  0.05185797  0.17727155  0.84555158    -0.14940
F182        F  0.10307989  0.21313155  0.94552568    -0.12580
C183        C  0.05441082  0.22087127  0.61637577     0.25440
C184        C  0.05330571  0.25320020  0.66952026    -0.22670
C185        C  0.07890570  0.30669465  0.66208080     0.20340
C186        C  0.08659294  0.33298141  0.60466771     0.25380
C187        C  0.07070138  0.30625439  0.54993509    -0.22620
C188        C  0.05420753  0.24792578  0.55898711     0.20280
F189        F  0.03209774  0.21630182  0.51625569    -0.12580
F190        F  0.04469438  0.16385457  0.62016733    -0.14940
F191        F  0.11951410  0.38052800  0.60232463    -0.14940
F192        F  0.11227161  0.32491536  0.70484815    -0.12480
C193        C  0.31533543  0.42709628  0.82886244     0.25440
C194        C  0.26156095  0.44814826  0.82739479    -0.22670
C195        C  0.22742451  0.44277383  0.88131061     0.20340
C196        C  0.25089332  0.43540933  0.93743376     0.25380
C197        C  0.30870272  0.42679003  0.94103324    -0.22620
C198        C  0.33720883  0.41444217  0.88450052     0.20280
F199        F  0.38569840  0.38686332  0.88261486    -0.12580
F200        F  0.34936632  0.42439859  0.77809639    -0.14940
F201        F  0.21780973  0.44817826  0.98644554    -0.14940
F202        F  0.17610956  0.46550770  0.88256084    -0.12580
C203        C  0.26002118  0.40984399  0.59538292     0.25440
C204        C  0.30778086  0.43338036  0.56265566    -0.22670
C205        C  0.33588676  0.47395395  0.59565603     0.20340
C206        C  0.32893849  0.47747964  0.65889901     0.25380
C207        C  0.28036561  0.45525092  0.68874119    -0.22620
C208        C  0.24845777  0.41752055  0.65732364     0.20280
F209        F  0.20083059  0.39532656  0.68440347    -0.12580
F210        F  0.22149094  0.38196945  0.56709511    -0.14940
F211        F  0.36134441  0.51434803  0.68824147    -0.14940
F212        F  0.36147653  0.51733713  0.56471855    -0.12580
C213        C  0.27487609  0.05825321  0.87349867     0.25440
C214        C  0.24127334  0.05282180  0.82358127    -0.22670
C215        C  0.18855767  0.07642278  0.82971841     0.20340
C216        C  0.16682056  0.09012991  0.88716842     0.25380
C217        C  0.19197634  0.07287281  0.94199657    -0.22620
C218        C  0.24982877  0.06150635  0.93261829     0.20280
F219        F  0.28116353  0.04223371  0.97726624    -0.12580
F220        F  0.32807924  0.03985567  0.86755292    -0.14940
F221        F  0.12065653  0.12169157  0.88908536    -0.14940
F222        F  0.15616820  0.08347779  0.78197206    -0.12580
C223        C  0.23466393  0.07865973  0.58776549     0.25440
C224        C  0.18081046  0.06478680  0.56863639    -0.22670
C225        C  0.14441744  0.04603400  0.61980832     0.20340
C226        C  0.16546452  0.02117751  0.67179044     0.25380
C227        C  0.21838626  0.03689781  0.68802731    -0.22620
C228        C  0.24896853  0.07316687  0.64815970     0.20280
F229        F  0.29508836  0.09932904  0.66671330    -0.12580
F230        F  0.27105992  0.10688205  0.55111016    -0.14940
F231        F  0.13102157  0.99068450  0.71165096    -0.14940
F232        F  0.09648416  0.07317606  0.63468935    -0.12580
O233        O  0.17671490  0.79775452  0.04134889    -0.71100
O234        O  0.31672751  0.69735124  0.05430637    -0.72090
O235        O  0.29909115  0.81680770  0.05014635    -0.60700
O236        O  0.19086087  0.67892459  0.05375288    -0.69110
O237        O  0.19863117  0.68076765  0.45469645    -0.68670
O238        O  0.30996930  0.81636596  0.45132912    -0.59920
O239        O  0.31904017  0.69214549  0.45550080    -0.72430
O240        O  0.18888332  0.80692527  0.44318499    -0.71210
Cu241      Cu  0.24564581  0.74776059  0.05313242     1.04560
Cu242      Cu  0.25431437  0.74881831  0.44820321     1.04330
C243        C  0.15882525  0.81835486  0.49119289     0.95090
C244        C  0.34269888  0.68048400  0.00509332     0.94230
C245        C  0.31886886  0.84178760  0.00118116     0.86380
C246        C  0.17848506  0.65554249  0.50423518     0.92650
C247        C  0.16001275  0.58927678  0.50421329    -0.00650
C248        C  0.24895620  0.49676219  0.22658568     0.02400
C249        C  0.25060740  0.49935371  0.28780930     0.02400
C250        C  0.33579528  0.90808460  0.50106164    -0.00650
C251        C  0.09432231  0.83557214  0.48756609    -0.00650
C252        C  0.50307426  0.74465895  0.21456555     0.02400
C253        C  0.50057858  0.75705243  0.27543939     0.02400
C254        C  0.40765757  0.66512966  0.50373535    -0.00650
O255        O  0.07879968  0.54307716  0.44814399    -0.71100
O256        O  0.42168207  0.95937199  0.44867757    -0.72090
O257        O  0.45875073  0.58180162  0.44806491    -0.60700
O258        O  0.04062019  0.92206518  0.44483648    -0.69110
O259        O  0.05405249  0.92606410  0.04000234    -0.68670
O260        O  0.44621881  0.56813564  0.04439806    -0.59920
O261        O  0.42993043  0.93518085  0.04337426    -0.72430
O262        O  0.06360475  0.55300801  0.04350040    -0.71210
Cu263      Cu  0.00014263  0.50168381  0.44379222     1.04560
Cu264      Cu  0.99795191  0.49529040  0.04578187     1.04330
C265        C  0.09634260  0.56391107  0.49748345     0.95090
C266        C  0.40072645  0.93169073  0.49623163     0.94230
C267        C  0.43613014  0.60036136  0.49812346     0.86380
C268        C  0.06466909  0.89951227  0.49030020     0.92650
C269        C  0.42318775  0.69544252  0.32917404     0.25440
C270        C  0.45074169  0.74826015  0.32141744    -0.22670
C271        C  0.45113892  0.78072114  0.37451580     0.20340
C272        C  0.44758397  0.75435699  0.43241898     0.25380
C273        C  0.42810785  0.69698648  0.44149464    -0.22620
C274        C  0.41232019  0.67095604  0.38707243     0.20280
F275        F  0.38126062  0.62266407  0.39023751    -0.12580
F276        F  0.39677913  0.67199597  0.28353887    -0.14940
F277        F  0.46971852  0.78547656  0.47553561    -0.14940
F278        F  0.46838387  0.83584774  0.37060373    -0.12580
C279        C  0.44380924  0.66981260  0.17337260     0.25440
C280        C  0.45311504  0.72790578  0.18304854    -0.22670
C281        C  0.43424656  0.76713382  0.14014647     0.20340
C282        C  0.42040667  0.74820956  0.08306329     0.25380
C283        C  0.42363036  0.68953344  0.06722341    -0.22620
C284        C  0.42146066  0.65305744  0.11991386     0.20280
F285        F  0.39113906  0.60442925  0.12355046    -0.12580
F286        F  0.46380459  0.62865665  0.21078819    -0.14940
F287        F  0.39869543  0.78727599  0.04676453    -0.14940
F288        F  0.43729420  0.82424385  0.14996078    -0.12580
C289        C  0.08548719  0.84661231  0.36898911     0.25440
C290        C  0.08171439  0.81079333  0.42261967    -0.22670
C291        C  0.08273702  0.75202223  0.40799165     0.20340
C292        C  0.06661732  0.73283771  0.35156319     0.25380
C293        C  0.05145682  0.77201282  0.30690864    -0.22620
C294        C  0.06480047  0.82946920  0.31461819     0.20280
F295        F  0.04648811  0.87079982  0.27624074    -0.12580
F296        F  0.10746720  0.89932908  0.36770205    -0.14940
F297        F  0.05185837  0.67727183  0.34555402    -0.14940
F298        F  0.10308209  0.71313377  0.44552639    -0.12580
C299        C  0.05441303  0.72086847  0.11637571     0.25440
C300        C  0.05330753  0.75319715  0.16952031    -0.22670
C301        C  0.07890614  0.80669220  0.16208096     0.20340
C302        C  0.08659157  0.83297971  0.10466810     0.25380
C303        C  0.07069991  0.80625248  0.04993559    -0.22620
C304        C  0.05420763  0.74792337  0.05898745     0.20280
F305        F  0.03209711  0.71629935  0.01625654    -0.12580
F306        F  0.04469844  0.66385144  0.12016709    -0.14940
F307        F  0.11951201  0.88052684  0.10232483    -0.14940
F308        F  0.11227300  0.82491268  0.20484758    -0.12480
C309        C  0.31533565  0.92709693  0.32886336     0.25440
C310        C  0.26156073  0.94814783  0.32739602    -0.22670
C311        C  0.22742531  0.94277478  0.38131278     0.20340
C312        C  0.25089527  0.93541261  0.43743555     0.25380
C313        C  0.30870468  0.92679307  0.44103420    -0.22620
C314        C  0.33721025  0.91444483  0.38450128     0.20280
F315        F  0.38570041  0.88686706  0.38261532    -0.12580
F316        F  0.34936577  0.92439837  0.27809681    -0.14940
F317        F  0.21781283  0.94818419  0.48644736    -0.14940
F318        F  0.17610984  0.96550747  0.38256350    -0.12580
C319        C  0.26001968  0.90984126  0.09538309     0.25440
C320        C  0.30777876  0.93337799  0.06265504    -0.22670
C321        C  0.33588465  0.97395188  0.09565505     0.20340
C322        C  0.32893718  0.97747745  0.15889817     0.25380
C323        C  0.28036489  0.95524822  0.18874117    -0.22620
C324        C  0.24845717  0.91751738  0.15732408     0.20280
F325        F  0.20083062  0.89532268  0.18440462    -0.12580
F326        F  0.22148904  0.88196681  0.06709596    -0.14940
F327        F  0.36134321  0.01434604  0.18824018    -0.14940
F328        F  0.36147354  0.01733532  0.06471718    -0.12580
C329        C  0.27487687  0.55825471  0.37349491     0.25440
C330        C  0.24127240  0.55282104  0.32357934    -0.22670
C331        C  0.18855664  0.57642155  0.32971766     0.20340
C332        C  0.16682173  0.59013102  0.38716783     0.25380
C333        C  0.19197884  0.57287483  0.44199541    -0.22620
C334        C  0.24983142  0.56150932  0.43261532     0.20280
F335        F  0.28116838  0.54223914  0.47726242    -0.12580
F336        F  0.32808022  0.53985809  0.36754725    -0.14940
F337        F  0.12065842  0.62169365  0.38908560    -0.14940
F338        F  0.15616501  0.58347348  0.28197266    -0.12580
C339        C  0.23466074  0.57865796  0.08776587     0.25440
C340        C  0.18080726  0.56478454  0.06863705    -0.22670
C341        C  0.14441493  0.54602908  0.11980874     0.20340
C342        C  0.16546308  0.52117309  0.17179051     0.25380
C343        C  0.21838461  0.53689440  0.18802700    -0.22620
C344        C  0.24896611  0.57316429  0.14815964     0.20280
F345        F  0.29508631  0.59932625  0.16671268    -0.12580
F346        F  0.27105638  0.60688088  0.05111041    -0.14940
F347        F  0.13102121  0.49067878  0.21165103    -0.14940
F348        F  0.09647927  0.57316652  0.13469043    -0.12580
O349        O  0.17671660  0.79775681  0.54134846    -0.71100
O350        O  0.31672909  0.69735351  0.55430656    -0.72090
O351        O  0.29909300  0.81681015  0.55014664    -0.60700
O352        O  0.19086326  0.67892663  0.55375235    -0.69110
O353        O  0.19862859  0.68076560  0.95469705    -0.68670
O354        O  0.30996757  0.81636312  0.95132886    -0.59920
O355        O  0.31903799  0.69214271  0.95550064    -0.72430
O356        O  0.18888164  0.80692325  0.94318548    -0.71210
Cu357      Cu  0.24564765  0.74776291  0.55313229     1.04560
Cu358      Cu  0.25431231  0.74881585  0.94820338     1.04330
C359        C  0.15882362  0.81835284  0.99119343     0.95090
C360        C  0.34270068  0.68048633  0.50509362     0.94230
C361        C  0.31887070  0.84179024  0.50118153     0.86380
C362        C  0.17848230  0.65554055  0.00423578     0.92650
C363        C  0.16000970  0.58927479  0.00421390    -0.00650
C364        C  0.24895722  0.49676486  0.72658589     0.02400
C365        C  0.25060882  0.49935548  0.78780954     0.02400
C366        C  0.33579315  0.90808197  0.00106099    -0.00650
C367        C  0.09432070  0.83557028  0.98756674    -0.00650
C368        C  0.50307247  0.74466251  0.71456593     0.02400
C369        C  0.50057728  0.75705473  0.77544006     0.02400
C370        C  0.40765580  0.66512764  0.00373462    -0.00650
O371        O  0.07879763  0.54307475  0.94814353    -0.71100
O372        O  0.42167978  0.95936964  0.94867678    -0.72090
O373        O  0.45874854  0.58179979  0.94806325    -0.60700
O374        O  0.04061786  0.92206279  0.94483672    -0.69110
O375        O  0.05405457  0.92606565  0.54000222    -0.68670
O376        O  0.44622186  0.56813821  0.54439989    -0.59920
O377        O  0.42993264  0.93518322  0.54337505    -0.72430
O378        O  0.06360822  0.55300893  0.54350131    -0.71210
Cu379      Cu  0.00014040  0.50168154  0.94379143     1.04560
Cu380      Cu  0.99795462  0.49529227  0.54578276     1.04330
C381        C  0.09633982  0.56390928  0.99748305     0.95090
C382        C  0.40072424  0.93168830  0.99623087     0.94230
C383        C  0.43612774  0.60035925  0.99812183     0.86380
C384        C  0.06466701  0.89951032  0.99030057     0.92650
C385        C  0.42318505  0.69544565  0.82917366     0.25440
C386        C  0.45074053  0.74826254  0.82141861    -0.22670
C387        C  0.45113910  0.78072169  0.87451821     0.20340
C388        C  0.44758320  0.75435597  0.93242060     0.25380
C389        C  0.42810630  0.69698556  0.94149448    -0.22620
C390        C  0.41231855  0.67095683  0.88707131     0.20280
F391        F  0.38125915  0.62266479  0.89023470    -0.12580
F392        F  0.39677201  0.67200392  0.78353875    -0.14940
F393        F  0.46971726  0.78547425  0.97553852    -0.14940
F394        F  0.46838502  0.83584808  0.87060819    -0.12580
C395        C  0.44380645  0.66981672  0.67337449     0.25440
C396        C  0.45311300  0.72790993  0.68304933    -0.22670
C397        C  0.43424598  0.76713755  0.64014602     0.20340
C398        C  0.42040788  0.74821260  0.58306257     0.25380
C399        C  0.42363145  0.68953619  0.56722385    -0.22620
C400        C  0.42145996  0.65306083  0.61991490     0.20280
F401        F  0.39113978  0.60443175  0.62355046    -0.12580
F402        F  0.46379979  0.62866122  0.71079204    -0.14940
F403        F  0.39869793  0.78727868  0.54676249    -0.14940
F404        F  0.43729399  0.82424773  0.64995942    -0.12580
C405        C  0.08548732  0.84661125  0.86899030     0.25440
C406        C  0.08171316  0.81079175  0.92262029    -0.22670
C407        C  0.08273544  0.75202081  0.90799146     0.20340
C408        C  0.06661640  0.73283739  0.85156233     0.25380
C409        C  0.05145601  0.77201354  0.80690872    -0.22620
C410        C  0.06480029  0.82946955  0.81461919     0.20280
F411        F  0.04648786  0.87080114  0.77624292    -0.12580
F412        F  0.10746784  0.89932766  0.86770468    -0.14940
F413        F  0.05185801  0.67727156  0.84555155    -0.14940
F414        F  0.10307990  0.71313157  0.94552566    -0.12580
C415        C  0.05441083  0.72087128  0.61637572     0.25440
C416        C  0.05330572  0.75320020  0.66952022    -0.22670
C417        C  0.07890570  0.80669465  0.66208077     0.20340
C418        C  0.08659294  0.83298142  0.60466769     0.25380
C419        C  0.07070138  0.80625441  0.54993506    -0.22620
C420        C  0.05420753  0.74792580  0.55898707     0.20280
F421        F  0.03209774  0.71630185  0.51625564    -0.12580
F422        F  0.04469440  0.66385458  0.62016728    -0.14940
F423        F  0.11951410  0.88052801  0.60232461    -0.14940
F424        F  0.11227162  0.82491536  0.70484813    -0.12480
C425        C  0.31533543  0.92709628  0.82886244     0.25440
C426        C  0.26156095  0.94814825  0.82739478    -0.22670
C427        C  0.22742451  0.94277383  0.88131060     0.20340
C428        C  0.25089332  0.93540934  0.93743376     0.25380
C429        C  0.30870272  0.92679004  0.94103323    -0.22620
C430        C  0.33720883  0.91444218  0.88450051     0.20280
F431        F  0.38569841  0.88686333  0.88261485    -0.12580
F432        F  0.34936631  0.92439858  0.77809638    -0.14940
F433        F  0.21780974  0.94817829  0.98644553    -0.14940
F434        F  0.17610956  0.96550769  0.88256084    -0.12580
C435        C  0.26002118  0.90984399  0.59538290     0.25440
C436        C  0.30778087  0.93338036  0.56265565    -0.22670
C437        C  0.33588677  0.97395394  0.59565603     0.20340
C438        C  0.32893849  0.97747963  0.65889900     0.25380
C439        C  0.28036561  0.95525090  0.68874118    -0.22620
C440        C  0.24845777  0.91752053  0.65732363     0.20280
F441        F  0.20083059  0.89532654  0.68440346    -0.12580
F442        F  0.22149094  0.88196945  0.56709509    -0.14940
F443        F  0.36134440  0.01434802  0.68824147    -0.14940
F444        F  0.36147654  0.01733712  0.56471855    -0.12580
C445        C  0.27487610  0.55825321  0.87349871     0.25440
C446        C  0.24127335  0.55282181  0.82358130    -0.22670
C447        C  0.18855769  0.57642279  0.82971844     0.20340
C448        C  0.16682056  0.59012991  0.88716844     0.25380
C449        C  0.19197634  0.57287281  0.94199659    -0.22620
C450        C  0.24982877  0.56150634  0.93261833     0.20280
F451        F  0.28116352  0.54223368  0.97726628    -0.12580
F452        F  0.32807924  0.53985565  0.86755297    -0.14940
F453        F  0.12065654  0.62169157  0.88908538    -0.14940
F454        F  0.15616824  0.58347783  0.78197208    -0.12580
C455        C  0.23466393  0.57865974  0.58776550     0.25440
C456        C  0.18081046  0.56478681  0.56863641    -0.22670
C457        C  0.14441744  0.54603402  0.61980835     0.20340
C458        C  0.16546452  0.52117754  0.67179047     0.25380
C459        C  0.21838626  0.53689783  0.68802733    -0.22620
C460        C  0.24896853  0.57316688  0.64815972     0.20280
F461        F  0.29508837  0.59932906  0.66671331    -0.12580
F462        F  0.27105992  0.60688206  0.55111017    -0.14940
F463        F  0.13102158  0.49068453  0.71165100    -0.14940
F464        F  0.09648415  0.57317608  0.63468937    -0.12580
O465        O  0.67671490  0.29775452  0.04134889    -0.71100
O466        O  0.81672751  0.19735124  0.05430638    -0.72090
O467        O  0.79909114  0.31680770  0.05014636    -0.60700
O468        O  0.69086087  0.17892458  0.05375288    -0.69110
O469        O  0.69863117  0.18076765  0.45469645    -0.68670
O470        O  0.80996930  0.31636596  0.45132913    -0.59920
O471        O  0.81904016  0.19214549  0.45550081    -0.72430
O472        O  0.68888332  0.30692527  0.44318500    -0.71210
Cu473      Cu  0.74564581  0.24776059  0.05313243     1.04560
Cu474      Cu  0.75431437  0.24881831  0.44820322     1.04330
C475        C  0.65882525  0.31835486  0.49119290     0.95090
C476        C  0.84269888  0.18048400  0.00509333     0.94230
C477        C  0.81886886  0.34178759  0.00118117     0.86380
C478        C  0.67848506  0.15554249  0.50423518     0.92650
C479        C  0.66001275  0.08927678  0.50421328    -0.00650
C480        C  0.74895620  0.99676219  0.22658567     0.02400
C481        C  0.75060740  0.99935370  0.28780929     0.02400
C482        C  0.83579528  0.40808460  0.50106165    -0.00650
C483        C  0.59432231  0.33557214  0.48756610    -0.00650
C484        C  0.00307423  0.24465899  0.21456558     0.02400
C485        C  0.00057855  0.25705247  0.27543942     0.02400
C486        C  0.90765757  0.16512967  0.50373536    -0.00650
O487        O  0.57879968  0.04307717  0.44814397    -0.71100
O488        O  0.92168207  0.45937199  0.44867758    -0.72090
O489        O  0.95875072  0.08180162  0.44806491    -0.60700
O490        O  0.54062019  0.42206517  0.44483650    -0.69110
O491        O  0.55405248  0.42606410  0.04000234    -0.68670
O492        O  0.94621882  0.06813564  0.04439806    -0.59920
O493        O  0.92993042  0.43518085  0.04337427    -0.72430
O494        O  0.56360476  0.05300801  0.04350040    -0.71210
Cu495      Cu  0.50014263  0.00168382  0.44379220     1.04560
Cu496      Cu  0.49795192  0.99529040  0.04578186     1.04330
C497        C  0.59634260  0.06391108  0.49748344     0.95090
C498        C  0.90072645  0.43169073  0.49623164     0.94230
C499        C  0.93613014  0.10036136  0.49812346     0.86380
C500        C  0.56466909  0.39951226  0.49030021     0.92650
C501        C  0.92318770  0.19544258  0.32917405     0.25440
C502        C  0.95074165  0.24826020  0.32141747    -0.22670
C503        C  0.95113891  0.28072117  0.37451584     0.20340
C504        C  0.94758398  0.25435699  0.43241901     0.25380
C505        C  0.92810785  0.19698649  0.44149465    -0.22620
C506        C  0.91232017  0.17095606  0.38707244     0.20280
F507        F  0.88126061  0.12266409  0.39023750    -0.12580
F508        F  0.89677901  0.17199610  0.28353889    -0.14940
F509        F  0.96971856  0.28547653  0.47553564    -0.14940
F510        F  0.96838389  0.33584776  0.37060379    -0.12580
C511        C  0.94380921  0.16981264  0.17337263     0.25440
C512        C  0.95311501  0.22790582  0.18304855    -0.22670
C513        C  0.93424655  0.26713385  0.14014647     0.20340
C514        C  0.92040667  0.24820957  0.08306329     0.25380
C515        C  0.92363036  0.18953345  0.06722342    -0.22620
C516        C  0.92146066  0.15305746  0.11991389     0.20280
F517        F  0.89113909  0.10442925  0.12355048    -0.12580
F518        F  0.96380451  0.12865671  0.21078828    -0.14940
F519        F  0.89869543  0.28727599  0.04676451    -0.14940
F520        F  0.93729419  0.32424388  0.14996075    -0.12580
C521        C  0.58548719  0.34661230  0.36898912     0.25440
C522        C  0.58171439  0.31079333  0.42261968    -0.22670
C523        C  0.58273701  0.25202222  0.40799166     0.20340
C524        C  0.56661732  0.23283771  0.35156320     0.25380
C525        C  0.55145682  0.27201282  0.30690865    -0.22620
C526        C  0.56480047  0.32946919  0.31461820     0.20280
F527        F  0.54648811  0.37079982  0.27624076    -0.12580
F528        F  0.60746720  0.39932908  0.36770206    -0.14940
F529        F  0.55185836  0.17727183  0.34555403    -0.14940
F530        F  0.60308209  0.21313376  0.44552640    -0.12580
C531        C  0.55441303  0.22086847  0.11637572     0.25440
C532        C  0.55330753  0.25319716  0.16952032    -0.22670
C533        C  0.57890614  0.30669221  0.16208097     0.20340
C534        C  0.58659157  0.33297972  0.10466810     0.25380
C535        C  0.57069991  0.30625248  0.04993560    -0.22620
C536        C  0.55420763  0.24792337  0.05898746     0.20280
F537        F  0.53209711  0.21629935  0.01625655    -0.12580
F538        F  0.54469844  0.16385144  0.12016711    -0.14940
F539        F  0.61951201  0.38052684  0.10232483    -0.14940
F540        F  0.61227299  0.32491269  0.20484759    -0.12480
C541        C  0.81533565  0.42709693  0.32886337     0.25440
C542        C  0.76156073  0.44814783  0.32739603    -0.22670
C543        C  0.72742531  0.44277478  0.38131278     0.20340
C544        C  0.75089527  0.43541260  0.43743556     0.25380
C545        C  0.80870468  0.42679307  0.44103420    -0.22620
C546        C  0.83721024  0.41444483  0.38450129     0.20280
F547        F  0.88570040  0.38686706  0.38261533    -0.12580
F548        F  0.84936577  0.42439838  0.27809681    -0.14940
F549        F  0.71781282  0.44818418  0.48644737    -0.14940
F550        F  0.67610984  0.46550747  0.38256350    -0.12580
C551        C  0.76001968  0.40984126  0.09538311     0.25440
C552        C  0.80777875  0.43337799  0.06265504    -0.22670
C553        C  0.83588464  0.47395188  0.09565504     0.20340
C554        C  0.82893718  0.47747746  0.15889816     0.25380
C555        C  0.78036490  0.45524823  0.18874117    -0.22620
C556        C  0.74845718  0.41751738  0.15732409     0.20280
F557        F  0.70083063  0.39532269  0.18440464    -0.12580
F558        F  0.72148904  0.38196680  0.06709598    -0.14940
F559        F  0.86134321  0.51434605  0.18824017    -0.14940
F560        F  0.86147353  0.51733533  0.06471717    -0.12580
C561        C  0.77487687  0.05825471  0.37349491     0.25440
C562        C  0.74127240  0.05282103  0.32357934    -0.22670
C563        C  0.68855665  0.07642155  0.32971765     0.20340
C564        C  0.66682173  0.09013103  0.38716782     0.25380
C565        C  0.69197884  0.07287484  0.44199541    -0.22620
C566        C  0.74983142  0.06150932  0.43261532     0.20280
F567        F  0.78116838  0.04223914  0.47726242    -0.12580
F568        F  0.82808022  0.03985809  0.36754724    -0.14940
F569        F  0.62065843  0.12169365  0.38908559    -0.14940
F570        F  0.65616501  0.08347348  0.28197265    -0.12580
C571        C  0.73466075  0.07865796  0.08776586     0.25440
C572        C  0.68080726  0.06478453  0.06863704    -0.22670
C573        C  0.64441494  0.04602908  0.11980873     0.20340
C574        C  0.66546309  0.02117310  0.17179050     0.25380
C575        C  0.71838462  0.03689440  0.18802699    -0.22620
C576        C  0.74896612  0.07316428  0.14815962     0.20280
F577        F  0.79508633  0.09932623  0.16671267    -0.12580
F578        F  0.77105639  0.10688087  0.05111040    -0.14940
F579        F  0.63102121  0.99067879  0.21165103    -0.14940
F580        F  0.59647928  0.07316653  0.13469042    -0.12580
O581        O  0.67671660  0.29775681  0.54134847    -0.71100
O582        O  0.81672908  0.19735351  0.55430657    -0.72090
O583        O  0.79909300  0.31681015  0.55014666    -0.60700
O584        O  0.69086326  0.17892662  0.55375235    -0.69110
O585        O  0.69862859  0.18076560  0.95469705    -0.68670
O586        O  0.80996757  0.31636311  0.95132886    -0.59920
O587        O  0.81903799  0.19214271  0.95550065    -0.72430
O588        O  0.68888164  0.30692325  0.94318549    -0.71210
Cu589      Cu  0.74564765  0.24776291  0.55313229     1.04560
Cu590      Cu  0.75431231  0.24881585  0.94820339     1.04330
C591        C  0.65882362  0.31835284  0.99119343     0.95090
C592        C  0.84270068  0.18048633  0.50509363     0.94230
C593        C  0.81887069  0.34179024  0.50118154     0.86380
C594        C  0.67848230  0.15554055  0.00423577     0.92650
C595        C  0.66000971  0.08927479  0.00421390    -0.00650
C596        C  0.74895722  0.99676484  0.72658588     0.02400
C597        C  0.75060881  0.99935547  0.78780953     0.02400
C598        C  0.83579315  0.40808197  0.00106099    -0.00650
C599        C  0.59432070  0.33557028  0.98756674    -0.00650
C600        C  0.00307245  0.24466254  0.71456596     0.02400
C601        C  0.00057725  0.25705475  0.77544009     0.02400
C602        C  0.90765580  0.16512764  0.00373464    -0.00650
O603        O  0.57879763  0.04307475  0.94814352    -0.71100
O604        O  0.92167978  0.45936963  0.94867679    -0.72090
O605        O  0.95874853  0.08179979  0.94806325    -0.60700
O606        O  0.54061786  0.42206278  0.94483673    -0.69110
O607        O  0.55405457  0.42606565  0.54000224    -0.68670
O608        O  0.94622186  0.06813821  0.54439989    -0.59920
O609        O  0.92993263  0.43518322  0.54337506    -0.72430
O610        O  0.56360822  0.05300894  0.54350130    -0.71210
Cu611      Cu  0.50014040  0.00168155  0.94379143     1.04560
Cu612      Cu  0.49795462  0.99529228  0.54578275     1.04330
C613        C  0.59633983  0.06390928  0.99748305     0.95090
C614        C  0.90072424  0.43168830  0.99623087     0.94230
C615        C  0.93612774  0.10035926  0.99812184     0.86380
C616        C  0.56466701  0.39951032  0.99030057     0.92650
C617        C  0.92318501  0.19544570  0.82917367     0.25440
C618        C  0.95074050  0.24826258  0.82141864    -0.22670
C619        C  0.95113909  0.28072172  0.87451825     0.20340
C620        C  0.94758321  0.25435597  0.93242063     0.25380
C621        C  0.92810630  0.19698557  0.94149449    -0.22620
C622        C  0.91231854  0.17095685  0.88707132     0.20280
F623        F  0.88125914  0.12266481  0.89023470    -0.12580
F624        F  0.89677191  0.17200402  0.78353877    -0.14940
F625        F  0.96971730  0.28547422  0.97553855    -0.14940
F626        F  0.96838503  0.33584810  0.87060825    -0.12580
C627        C  0.94380642  0.16981674  0.67337452     0.25440
C628        C  0.95311298  0.22790995  0.68304934    -0.22670
C629        C  0.93424598  0.26713757  0.64014602     0.20340
C630        C  0.92040788  0.24821261  0.58306258     0.25380
C631        C  0.92363145  0.18953619  0.56722386    -0.22620
C632        C  0.92145995  0.15306084  0.61991492     0.20280
F633        F  0.89113980  0.10443175  0.62355047    -0.12580
F634        F  0.96379971  0.12866125  0.71079211    -0.14940
F635        F  0.89869793  0.28727868  0.54676248    -0.14940
F636        F  0.93729399  0.32424775  0.64995940    -0.12580
C637        C  0.58548732  0.34661125  0.86899031     0.25440
C638        C  0.58171316  0.31079174  0.92262030    -0.22670
C639        C  0.58273544  0.25202081  0.90799147     0.20340
C640        C  0.56661639  0.23283739  0.85156234     0.25380
C641        C  0.55145601  0.27201354  0.80690873    -0.22620
C642        C  0.56480029  0.32946954  0.81461920     0.20280
F643        F  0.54648787  0.37080113  0.77624292    -0.12580
F644        F  0.60746784  0.39932766  0.86770469    -0.14940
F645        F  0.55185800  0.17727155  0.84555157    -0.14940
F646        F  0.60307990  0.21313157  0.94552567    -0.12580
C647        C  0.55441083  0.22087127  0.61637573     0.25440
C648        C  0.55330572  0.25320018  0.66952023    -0.22670
C649        C  0.57890571  0.30669464  0.66208078     0.20340
C650        C  0.58659294  0.33298141  0.60466770     0.25380
C651        C  0.57070138  0.30625440  0.54993507    -0.22620
C652        C  0.55420752  0.24792579  0.55898708     0.20280
F653        F  0.53209773  0.21630184  0.51625565    -0.12580
F654        F  0.54469440  0.16385457  0.62016728    -0.14940
F655        F  0.61951410  0.38052800  0.60232463    -0.14940
F656        F  0.61227163  0.32491534  0.70484813    -0.12480
C657        C  0.81533543  0.42709628  0.82886244     0.25440
C658        C  0.76156095  0.44814826  0.82739478    -0.22670
C659        C  0.72742451  0.44277383  0.88131060     0.20340
C660        C  0.75089332  0.43540933  0.93743375     0.25380
C661        C  0.80870272  0.42679004  0.94103323    -0.22620
C662        C  0.83720882  0.41444218  0.88450051     0.20280
F663        F  0.88569840  0.38686333  0.88261485    -0.12580
F664        F  0.84936632  0.42439858  0.77809638    -0.14940
F665        F  0.71780973  0.44817826  0.98644553    -0.14940
F666        F  0.67610955  0.46550769  0.88256084    -0.12580
C667        C  0.76002118  0.40984399  0.59538291     0.25440
C668        C  0.80778086  0.43338036  0.56265566    -0.22670
C669        C  0.83588676  0.47395395  0.59565603     0.20340
C670        C  0.82893849  0.47747964  0.65889900     0.25380
C671        C  0.78036561  0.45525092  0.68874118    -0.22620
C672        C  0.74845777  0.41752055  0.65732364     0.20280
F673        F  0.70083059  0.39532656  0.68440347    -0.12580
F674        F  0.72149094  0.38196945  0.56709510    -0.14940
F675        F  0.86134441  0.51434803  0.68824146    -0.14940
F676        F  0.86147653  0.51733713  0.56471854    -0.12580
C677        C  0.77487610  0.05825321  0.87349869     0.25440
C678        C  0.74127335  0.05282180  0.82358129    -0.22670
C679        C  0.68855768  0.07642278  0.82971843     0.20340
C680        C  0.66682056  0.09012991  0.88716843     0.25380
C681        C  0.69197635  0.07287281  0.94199658    -0.22620
C682        C  0.74982877  0.06150634  0.93261831     0.20280
F683        F  0.78116353  0.04223369  0.97726626    -0.12580
F684        F  0.82807925  0.03985566  0.86755294    -0.14940
F685        F  0.62065654  0.12169157  0.88908537    -0.14940
F686        F  0.65616822  0.08347781  0.78197207    -0.12580
C687        C  0.73466393  0.07865973  0.58776550     0.25440
C688        C  0.68081046  0.06478680  0.56863640    -0.22670
C689        C  0.64441744  0.04603401  0.61980834     0.20340
C690        C  0.66546453  0.02117753  0.67179046     0.25380
C691        C  0.71838626  0.03689782  0.68802732    -0.22620
C692        C  0.74896853  0.07316687  0.64815971     0.20280
F693        F  0.79508837  0.09932904  0.66671330    -0.12580
F694        F  0.77105992  0.10688206  0.55111016    -0.14940
F695        F  0.63102158  0.99068452  0.71165098    -0.14940
F696        F  0.59648415  0.07317606  0.63468936    -0.12580
O697        O  0.67671491  0.79775452  0.04134889    -0.71100
O698        O  0.81672751  0.69735124  0.05430637    -0.72090
O699        O  0.79909114  0.81680770  0.05014636    -0.60700
O700        O  0.69086087  0.67892459  0.05375288    -0.69110
O701        O  0.69863118  0.68076764  0.45469645    -0.68670
O702        O  0.80996930  0.81636596  0.45132912    -0.59920
O703        O  0.81904017  0.69214549  0.45550080    -0.72430
O704        O  0.68888332  0.80692527  0.44318499    -0.71210
Cu705      Cu  0.74564581  0.74776059  0.05313242     1.04560
Cu706      Cu  0.75431438  0.74881831  0.44820321     1.04330
C707        C  0.65882525  0.81835486  0.49119289     0.95090
C708        C  0.84269888  0.68048400  0.00509332     0.94230
C709        C  0.81886886  0.84178760  0.00118117     0.86380
C710        C  0.67848506  0.65554248  0.50423518     0.92650
C711        C  0.66001275  0.58927678  0.50421328    -0.00650
C712        C  0.74895620  0.49676219  0.22658567     0.02400
C713        C  0.75060740  0.49935371  0.28780929     0.02400
C714        C  0.83579528  0.90808460  0.50106165    -0.00650
C715        C  0.59432231  0.83557214  0.48756608    -0.00650
C716        C  0.00307425  0.74465896  0.21456555     0.02400
C717        C  0.00057857  0.75705244  0.27543939     0.02400
C718        C  0.90765757  0.66512966  0.50373535    -0.00650
O719        O  0.57879967  0.54307716  0.44814398    -0.71100
O720        O  0.92168207  0.95937199  0.44867757    -0.72090
O721        O  0.95875073  0.58180161  0.44806491    -0.60700
O722        O  0.54062019  0.92206518  0.44483648    -0.69110
O723        O  0.55405249  0.92606410  0.04000234    -0.68670
O724        O  0.94621881  0.56813564  0.04439806    -0.59920
O725        O  0.92993043  0.93518085  0.04337426    -0.72430
O726        O  0.56360475  0.55300802  0.04350040    -0.71210
Cu727      Cu  0.50014262  0.50168381  0.44379222     1.04560
Cu728      Cu  0.49795191  0.49529041  0.04578186     1.04330
C729        C  0.59634260  0.56391108  0.49748344     0.95090
C730        C  0.90072645  0.93169073  0.49623163     0.94230
C731        C  0.93613014  0.60036136  0.49812346     0.86380
C732        C  0.56466910  0.89951226  0.49030020     0.92650
C733        C  0.92318774  0.69544253  0.32917404     0.25440
C734        C  0.95074168  0.74826016  0.32141745    -0.22670
C735        C  0.95113892  0.78072114  0.37451580     0.20340
C736        C  0.94758397  0.75435699  0.43241899     0.25380
C737        C  0.92810785  0.69698648  0.44149464    -0.22620
C738        C  0.91232019  0.67095604  0.38707243     0.20280
F739        F  0.88126062  0.62266407  0.39023750    -0.12580
F740        F  0.89677910  0.67199600  0.28353887    -0.14940
F741        F  0.96971853  0.78547655  0.47553561    -0.14940
F742        F  0.96838388  0.83584774  0.37060374    -0.12580
C743        C  0.94380923  0.66981260  0.17337260     0.25440
C744        C  0.95311504  0.72790578  0.18304854    -0.22670
C745        C  0.93424656  0.76713383  0.14014647     0.20340
C746        C  0.92040667  0.74820956  0.08306329     0.25380
C747        C  0.92363036  0.68953344  0.06722341    -0.22620
C748        C  0.92146066  0.65305744  0.11991386     0.20280
F749        F  0.89113907  0.60442925  0.12355046    -0.12580
F750        F  0.96380457  0.62865666  0.21078821    -0.14940
F751        F  0.89869543  0.78727598  0.04676452    -0.14940
F752        F  0.93729420  0.82424386  0.14996077    -0.12580
C753        C  0.58548719  0.84661231  0.36898911     0.25440
C754        C  0.58171440  0.81079333  0.42261967    -0.22670
C755        C  0.58273702  0.75202223  0.40799165     0.20340
C756        C  0.56661733  0.73283771  0.35156319     0.25380
C757        C  0.55145683  0.77201281  0.30690864    -0.22620
C758        C  0.56480048  0.82946919  0.31461819     0.20280
F759        F  0.54648811  0.87079982  0.27624074    -0.12580
F760        F  0.60746720  0.89932908  0.36770204    -0.14940
F761        F  0.55185838  0.67727183  0.34555402    -0.14940
F762        F  0.60308209  0.71313377  0.44552639    -0.12580
C763        C  0.55441303  0.72086847  0.11637570     0.25440
C764        C  0.55330754  0.75319714  0.16952030    -0.22670
C765        C  0.57890615  0.80669219  0.16208096     0.20340
C766        C  0.58659157  0.83297971  0.10466810     0.25380
C767        C  0.57069991  0.80625248  0.04993559    -0.22620
C768        C  0.55420763  0.74792337  0.05898745     0.20280
F769        F  0.53209711  0.71629935  0.01625653    -0.12580
F770        F  0.54469844  0.66385144  0.12016708    -0.14940
F771        F  0.61951201  0.88052684  0.10232483    -0.14940
F772        F  0.61227301  0.82491267  0.20484758    -0.12480
C773        C  0.81533565  0.92709693  0.32886337     0.25440
C774        C  0.76156073  0.94814783  0.32739603    -0.22670
C775        C  0.72742531  0.94277478  0.38131278     0.20340
C776        C  0.75089527  0.93541260  0.43743555     0.25380
C777        C  0.80870468  0.92679307  0.44103420    -0.22620
C778        C  0.83721025  0.91444482  0.38450129     0.20280
F779        F  0.88570040  0.88686706  0.38261533    -0.12580
F780        F  0.84936577  0.92439837  0.27809681    -0.14940
F781        F  0.71781282  0.94818418  0.48644736    -0.14940
F782        F  0.67610984  0.96550747  0.38256350    -0.12580
C783        C  0.76001968  0.90984126  0.09538310     0.25440
C784        C  0.80777875  0.93337799  0.06265504    -0.22670
C785        C  0.83588465  0.97395188  0.09565505     0.20340
C786        C  0.82893718  0.97747745  0.15889817     0.25380
C787        C  0.78036490  0.95524822  0.18874117    -0.22620
C788        C  0.74845717  0.91751738  0.15732408     0.20280
F789        F  0.70083062  0.89532269  0.18440462    -0.12580
F790        F  0.72148904  0.88196680  0.06709597    -0.14940
F791        F  0.86134322  0.01434604  0.18824019    -0.14940
F792        F  0.86147354  0.01733532  0.06471718    -0.12580
C793        C  0.77487687  0.55825471  0.37349491     0.25440
C794        C  0.74127240  0.55282103  0.32357934    -0.22670
C795        C  0.68855664  0.57642154  0.32971765     0.20340
C796        C  0.66682173  0.59013102  0.38716782     0.25380
C797        C  0.69197884  0.57287483  0.44199541    -0.22620
C798        C  0.74983142  0.56150931  0.43261532     0.20280
F799        F  0.78116838  0.54223914  0.47726242    -0.12580
F800        F  0.82808022  0.53985809  0.36754724    -0.14940
F801        F  0.62065843  0.62169364  0.38908559    -0.14940
F802        F  0.65616500  0.58347347  0.28197266    -0.12580
C803        C  0.73466074  0.57865796  0.08776586     0.25440
C804        C  0.68080726  0.56478453  0.06863705    -0.22670
C805        C  0.64441493  0.54602908  0.11980874     0.20340
C806        C  0.66546308  0.52117309  0.17179050     0.25380
C807        C  0.71838461  0.53689440  0.18802699    -0.22620
C808        C  0.74896611  0.57316429  0.14815963     0.20280
F809        F  0.79508631  0.59932625  0.16671268    -0.12580
F810        F  0.77105638  0.60688088  0.05111040    -0.14940
F811        F  0.63102121  0.49067878  0.21165103    -0.14940
F812        F  0.59647927  0.57316651  0.13469043    -0.12580
O813        O  0.67671661  0.79775681  0.54134846    -0.71100
O814        O  0.81672909  0.69735350  0.55430656    -0.72090
O815        O  0.79909300  0.81681015  0.55014665    -0.60700
O816        O  0.69086326  0.67892663  0.55375235    -0.69110
O817        O  0.69862859  0.68076560  0.95469705    -0.68670
O818        O  0.80996758  0.81636312  0.95132886    -0.59920
O819        O  0.81903799  0.69214271  0.95550064    -0.72430
O820        O  0.68888164  0.80692325  0.94318548    -0.71210
Cu821      Cu  0.74564765  0.74776291  0.55313229     1.04560
Cu822      Cu  0.75431231  0.74881585  0.94820339     1.04330
C823        C  0.65882362  0.81835284  0.99119343     0.95090
C824        C  0.84270068  0.68048632  0.50509362     0.94230
C825        C  0.81887069  0.84179024  0.50118153     0.86380
C826        C  0.67848230  0.65554055  0.00423577     0.92650
C827        C  0.66000970  0.58927479  0.00421390    -0.00650
C828        C  0.74895722  0.49676486  0.72658588     0.02400
C829        C  0.75060882  0.49935548  0.78780954     0.02400
C830        C  0.83579315  0.90808197  0.00106099    -0.00650
C831        C  0.59432070  0.83557028  0.98756674    -0.00650
C832        C  0.00307247  0.74466252  0.71456593     0.02400
C833        C  0.00057727  0.75705473  0.77544007     0.02400
C834        C  0.90765580  0.66512764  0.00373462    -0.00650
O835        O  0.57879763  0.54307475  0.94814352    -0.71100
O836        O  0.92167978  0.95936964  0.94867678    -0.72090
O837        O  0.95874854  0.58179978  0.94806325    -0.60700
O838        O  0.54061786  0.92206279  0.94483672    -0.69110
O839        O  0.55405458  0.92606565  0.54000222    -0.68670
O840        O  0.94622186  0.56813821  0.54439989    -0.59920
O841        O  0.92993264  0.93518322  0.54337505    -0.72430
O842        O  0.56360822  0.55300894  0.54350131    -0.71210
Cu843      Cu  0.50014040  0.50168155  0.94379143     1.04560
Cu844      Cu  0.49795462  0.49529227  0.54578276     1.04330
C845        C  0.59633982  0.56390928  0.99748305     0.95090
C846        C  0.90072424  0.93168830  0.99623087     0.94230
C847        C  0.93612774  0.60035925  0.99812183     0.86380
C848        C  0.56466702  0.89951032  0.99030057     0.92650
C849        C  0.92318505  0.69544566  0.82917366     0.25440
C850        C  0.95074053  0.74826255  0.82141862    -0.22670
C851        C  0.95113910  0.78072169  0.87451822     0.20340
C852        C  0.94758320  0.75435597  0.93242061     0.25380
C853        C  0.92810630  0.69698556  0.94149448    -0.22620
C854        C  0.91231855  0.67095683  0.88707131     0.20280
F855        F  0.88125915  0.62266479  0.89023470    -0.12580
F856        F  0.89677199  0.67200394  0.78353875    -0.14940
F857        F  0.96971726  0.78547424  0.97553852    -0.14940
F858        F  0.96838502  0.83584808  0.87060820    -0.12580
C859        C  0.94380645  0.66981672  0.67337450     0.25440
C860        C  0.95311300  0.72790993  0.68304933    -0.22670
C861        C  0.93424598  0.76713755  0.64014602     0.20340
C862        C  0.92040788  0.74821260  0.58306257     0.25380
C863        C  0.92363146  0.68953618  0.56722385    -0.22620
C864        C  0.92145996  0.65306083  0.61991490     0.20280
F865        F  0.89113979  0.60443175  0.62355046    -0.12580
F866        F  0.96379977  0.62866123  0.71079205    -0.14940
F867        F  0.89869793  0.78727868  0.54676249    -0.14940
F868        F  0.93729398  0.82424773  0.64995941    -0.12580
C869        C  0.58548732  0.84661125  0.86899030     0.25440
C870        C  0.58171316  0.81079175  0.92262029    -0.22670
C871        C  0.58273544  0.75202081  0.90799146     0.20340
C872        C  0.56661640  0.73283739  0.85156233     0.25380
C873        C  0.55145602  0.77201354  0.80690872    -0.22620
C874        C  0.56480030  0.82946955  0.81461919     0.20280
F875        F  0.54648787  0.87080114  0.77624291    -0.12580
F876        F  0.60746784  0.89932767  0.86770468    -0.14940
F877        F  0.55185802  0.67727156  0.84555155    -0.14940
F878        F  0.60307990  0.71313157  0.94552566    -0.12580
C879        C  0.55441083  0.72087128  0.61637572     0.25440
C880        C  0.55330572  0.75320019  0.66952022    -0.22670
C881        C  0.57890571  0.80669464  0.66208077     0.20340
C882        C  0.58659294  0.83298142  0.60466769     0.25380
C883        C  0.57070138  0.80625440  0.54993506    -0.22620
C884        C  0.55420752  0.74792580  0.55898707     0.20280
F885        F  0.53209773  0.71630186  0.51625564    -0.12580
F886        F  0.54469440  0.66385458  0.62016726    -0.14940
F887        F  0.61951410  0.88052801  0.60232461    -0.14940
F888        F  0.61227162  0.82491535  0.70484812    -0.12480
C889        C  0.81533543  0.92709627  0.82886244     0.25440
C890        C  0.76156095  0.94814825  0.82739478    -0.22670
C891        C  0.72742451  0.94277383  0.88131060     0.20340
C892        C  0.75089332  0.93540933  0.93743376     0.25380
C893        C  0.80870272  0.92679004  0.94103324    -0.22620
C894        C  0.83720883  0.91444218  0.88450052     0.20280
F895        F  0.88569841  0.88686333  0.88261485    -0.12580
F896        F  0.84936631  0.92439857  0.77809638    -0.14940
F897        F  0.71780974  0.94817828  0.98644553    -0.14940
F898        F  0.67610956  0.96550769  0.88256084    -0.12580
C899        C  0.76002118  0.90984399  0.59538291     0.25440
C900        C  0.80778086  0.93338036  0.56265566    -0.22670
C901        C  0.83588677  0.97395394  0.59565603     0.20340
C902        C  0.82893850  0.97747963  0.65889901     0.25380
C903        C  0.78036561  0.95525091  0.68874118    -0.22620
C904        C  0.74845777  0.91752054  0.65732363     0.20280
F905        F  0.70083059  0.89532655  0.68440346    -0.12580
F906        F  0.72149094  0.88196945  0.56709509    -0.14940
F907        F  0.86134441  0.01434802  0.68824147    -0.14940
F908        F  0.86147654  0.01733712  0.56471855    -0.12580
C909        C  0.77487610  0.55825320  0.87349871     0.25440
C910        C  0.74127335  0.55282181  0.82358130    -0.22670
C911        C  0.68855768  0.57642279  0.82971843     0.20340
C912        C  0.66682056  0.59012991  0.88716843     0.25380
C913        C  0.69197634  0.57287281  0.94199659    -0.22620
C914        C  0.74982876  0.56150634  0.93261832     0.20280
F915        F  0.78116352  0.54223368  0.97726627    -0.12580
F916        F  0.82807924  0.53985565  0.86755296    -0.14940
F917        F  0.62065654  0.62169157  0.88908538    -0.14940
F918        F  0.65616823  0.58347782  0.78197208    -0.12580
C919        C  0.73466393  0.57865974  0.58776550     0.25440
C920        C  0.68081046  0.56478681  0.56863640    -0.22670
C921        C  0.64441744  0.54603402  0.61980834     0.20340
C922        C  0.66546452  0.52117754  0.67179047     0.25380
C923        C  0.71838626  0.53689783  0.68802733    -0.22620
C924        C  0.74896853  0.57316688  0.64815972     0.20280
F925        F  0.79508837  0.59932906  0.66671330    -0.12580
F926        F  0.77105992  0.60688206  0.55111016    -0.14940
F927        F  0.63102158  0.49068453  0.71165100    -0.14940
F928        F  0.59648415  0.57317607  0.63468937    -0.12580
loop_ 
_geom_bond_atom_site_label_1 
_geom_bond_atom_site_label_2 
_geom_bond_distance 
_geom_bond_site_symmetry_2 
_ccdc_geom_bond_type 
O1           Cu9   2.061       .  S
O1          C127   1.293   1_554  A
O2           Cu9   2.086       .  S
O2           C12   1.294       .  A
O3           Cu9   2.051       .  S
O3           C13   1.281       .  A
O4           Cu9   2.069       .  S
O4          C130   1.282       .  A
O5          Cu10   2.067       .  S
O5           C14   1.296       .  A
O6          Cu10   2.065       .  S
O6          C129   1.290       .  A
O7          Cu10   2.063       .  S
O7          C128   1.285       .  A
O8          Cu10   2.093       .  S
O8           C11   1.284       .  A
Cu9        Cu126   2.312   1_554  S
Cu10       Cu125   2.312       .  S
C11         O117   1.293       .  A
C11          C19   1.613       .  S
C12         O123   1.285   1_554  A
C12         C138   1.606       .  S
C13         O122   1.290   1_554  A
C13         C134   1.597       .  S
C14         O120   1.282       .  A
C14          C15   1.606       .  S
C15          C33   1.654       .  S
C15         C101   1.593       .  S
C15         C224   1.625       .  S
C16          C17   1.356       .  D
C16         C111   1.478   1_565  S
C16         C323   1.480       .  S
C17          C98   1.506   1_565  S
C17         C310   1.497       .  S
C18          C34   1.649       .  S
C18          C81   1.562       .  S
C18         C129   1.597       .  S
C18         C204   1.611       .  S
C19          C36   1.661       .  S
C19          C58   1.602       .  S
C19         C187   1.595       .  S
C20          C21   1.379       .  D
C20          C48   1.477       .  S
C20         C532   1.530       .  S
C21          C38   1.536       .  S
C21         C525   1.484       .  S
C22          C35   1.670       .  S
C22          C41   1.596       .  S
C22         C128   1.606       .  S
C22         C167   1.591       .  S
O23         Cu31   2.126       .  S
O23          C33   1.294       .  A
O24        Cu727   2.120       .  S
O24          C34   1.294       .  A
O25        Cu495   2.129       .  S
O25          C35   1.291       .  A
O26        Cu263   2.106       .  S
O26          C36   1.289       .  A
O27        Cu264   2.117   1_455  S
O27         C152   1.288   1_554  A
O28        Cu496   2.117   1_545  S
O28         C151   1.288   1_554  A
O29        Cu728   2.151       .  S
O29         C150   1.291   1_554  A
O30         Cu32   2.065   1_445  S
O30         C149   1.269   1_554  A
Cu31        O720   2.120   1_445  S
Cu31        O489   2.129   1_455  S
Cu31        O258   2.106   1_545  S
Cu31       Cu148   2.249   1_445  S
Cu32        O259   2.117   1_655  S
Cu32        O492   2.117   1_565  S
Cu32        O725   2.151       .  S
Cu32       Cu147   2.249   1_664  S
C33         O146   1.269       .  A
C34         O145   1.291       .  A
C35         O144   1.288       .  A
C36         O143   1.288       .  A
C37          C38   1.397       .  A
C37          C42   1.397       .  A
C37          F44   1.345       .  S
C38          C39   1.412       .  A
C39          C40   1.402       .  A
C39          F46   1.348       .  S
C40          C41   1.421       .  A
C40          F45   1.342       .  S
C41          C42   1.428       .  A
C42          F43   1.346       .  S
C47          C48   1.397       .  A
C47          C52   1.387       .  A
C47          F54   1.359       .  S
C48          C49   1.397       .  A
C49          C50   1.402       .  A
C49          F56   1.358       .  S
C50          C51   1.424       .  A
C50          F55   1.328       .  S
C51         C138   1.591       .  S
C51          C52   1.422       .  A
C52          F53   1.343       .  S
C57          C58   1.430       .  A
C57          C62   1.391       .  A
C57          F64   1.335       .  S
C58          C59   1.418       .  A
C59          C60   1.407       .  A
C59          F66   1.328       .  S
C60          C61   1.393       .  A
C60          F65   1.354       .  S
C61         C485   1.484       .  S
C61          C62   1.394       .  A
C62          F63   1.360       .  S
C67          C68   1.410       .  A
C67          C72   1.401       .  A
C67          F74   1.349       .  S
C68         C484   1.530       .  S
C68          C69   1.390       .  A
C69          C70   1.396       .  A
C69          F76   1.347       .  S
C70          C71   1.442       .  A
C70          F75   1.357       .  S
C71         C135   1.595   1_554  S
C71          C72   1.421       .  A
C72          F73   1.342       .  S
C77          C78   1.390       .  A
C77          C82   1.388       .  A
C77          F84   1.354       .  S
C78         C249   1.497       .  S
C78          C79   1.410       .  A
C79          C80   1.396       .  A
C79          F86   1.347       .  S
C80          C81   1.414       .  A
C80          F85   1.348       .  S
C81          C82   1.427       .  A
C82          F83   1.337       .  S
C87          C88   1.422       .  A
C87          C92   1.396       .  A
C87          F94   1.322       .  S
C88         C134   1.611       .  S
C88          C89   1.401       .  A
C89          C90   1.401       .  A
C89          F96   1.334       .  S
C90          C91   1.399       .  A
C90          F95   1.357       .  S
C91         C248   1.480       .  S
C91          C92   1.387       .  A
C92          F93   1.356       .  S
C97          C98   1.410       .  A
C97         C102   1.410       .  A
C97         F104   1.355       .  S
C98          C99   1.389       .  A
C99         C100   1.390       .  A
C99         F106   1.352       .  S
C100        C101   1.433       .  A
C100        F105   1.338       .  S
C101        C102   1.424       .  A
C102        F103   1.344       .  S
C107        C108   1.422       .  A
C107        C112   1.398       .  A
C107        F114   1.319       .  S
C108        C131   1.625       .  S
C108        C109   1.446       .  A
C109        C110   1.394       .  A
C109        F116   1.350       .  S
C110        C111   1.391       .  A
C110        F115   1.358   1_545  S
C111        C112   1.383       .  A
C112        F113   1.351       .  S
O117       Cu125   2.061       .  S
O118       Cu125   2.086       .  S
O118        C128   1.294       .  A
O119       Cu125   2.051       .  S
O119        C129   1.281       .  A
O120       Cu125   2.069       .  S
O121       Cu126   2.067       .  S
O121        C130   1.296   1_556  A
O122       Cu126   2.065       .  S
O123       Cu126   2.063       .  S
O124       Cu126   2.093       .  S
O124        C127   1.284       .  A
C127        C135   1.613       .  S
C130        C131   1.606       .  S
C131        C149   1.654   1_554  S
C131        C217   1.593   1_554  S
C132        C133   1.356       .  D
C132        C439   1.480       .  S
C132        C227   1.478   1_565  S
C133        C426   1.497       .  S
C133        C214   1.506   1_565  S
C134        C150   1.649   1_554  S
C134        C197   1.562   1_554  S
C135        C152   1.661       .  S
C135        C174   1.602       .  S
C136        C137   1.379       .  D
C136        C164   1.477       .  S
C136        C648   1.530       .  S
C137        C154   1.536       .  S
C137        C641   1.484       .  S
C138        C151   1.670   1_554  S
C138        C157   1.596   1_554  S
O139       Cu147   2.126       .  S
O139        C149   1.294       .  A
O140       Cu843   2.120       .  S
O140        C150   1.294       .  A
O141       Cu611   2.129       .  S
O141        C151   1.291       .  A
O142       Cu379   2.106       .  S
O142        C152   1.289       .  A
O143       Cu380   2.117   1_455  S
O144       Cu612   2.117   1_545  S
O145       Cu844   2.151       .  S
O146       Cu148   2.065   1_445  S
Cu147       O836   2.120   1_445  S
Cu147       O605   2.129   1_455  S
Cu147       O374   2.106   1_545  S
Cu148       O375   2.117   1_655  S
Cu148       O608   2.117   1_565  S
Cu148       O841   2.151       .  S
C153        C154   1.397       .  A
C153        C158   1.397       .  A
C153        F160   1.345       .  S
C154        C155   1.412       .  A
C155        C156   1.402       .  A
C155        F162   1.348       .  S
C156        C157   1.421       .  A
C156        F161   1.342       .  S
C157        C158   1.428       .  A
C158        F159   1.346       .  S
C163        C164   1.397       .  A
C163        C168   1.387       .  A
C163        F170   1.359       .  S
C164        C165   1.397       .  A
C165        C166   1.402       .  A
C165        F172   1.358       .  S
C166        C167   1.424       .  A
C166        F171   1.328       .  S
C167        C168   1.422       .  A
C168        F169   1.343       .  S
C173        C174   1.430       .  A
C173        C178   1.391       .  A
C173        F180   1.335       .  S
C174        C175   1.418       .  A
C175        C176   1.407       .  A
C175        F182   1.328       .  S
C176        C177   1.393       .  A
C176        F181   1.354       .  S
C177        C601   1.484       .  S
C177        C178   1.394       .  A
C178        F179   1.360       .  S
C183        C184   1.410       .  A
C183        C188   1.401       .  A
C183        F190   1.349       .  S
C184        C600   1.530       .  S
C184        C185   1.390       .  A
C185        C186   1.396       .  A
C185        F192   1.347       .  S
C186        C187   1.442       .  A
C186        F191   1.357       .  S
C187        C188   1.421       .  A
C188        F189   1.342       .  S
C193        C194   1.390       .  A
C193        C198   1.388       .  A
C193        F200   1.354       .  S
C194        C365   1.497       .  S
C194        C195   1.410       .  A
C195        C196   1.396       .  A
C195        F202   1.347       .  S
C196        C197   1.414       .  A
C196        F201   1.348       .  S
C197        C198   1.427       .  A
C198        F199   1.337       .  S
C203        C204   1.422       .  A
C203        C208   1.396       .  A
C203        F210   1.322       .  S
C204        C205   1.401       .  A
C205        C206   1.401       .  A
C205        F212   1.334       .  S
C206        C207   1.399       .  A
C206        F211   1.357       .  S
C207        C364   1.480       .  S
C207        C208   1.387       .  A
C208        F209   1.356       .  S
C213        C214   1.410       .  A
C213        C218   1.410       .  A
C213        F220   1.355       .  S
C214        C215   1.389       .  A
C215        C216   1.390       .  A
C215        F222   1.352       .  S
C216        C217   1.433       .  A
C216        F221   1.338       .  S
C217        C218   1.424       .  A
C218        F219   1.344       .  S
C223        C224   1.422       .  A
C223        C228   1.398       .  A
C223        F230   1.319       .  S
C224        C225   1.446       .  A
C225        C226   1.394       .  A
C225        F232   1.350       .  S
C226        C227   1.391       .  A
C226        F231   1.358   1_545  S
C227        C228   1.383       .  A
C228        F229   1.351       .  S
O233       Cu241   2.061       .  S
O233        C359   1.293   1_554  A
O234       Cu241   2.086       .  S
O234        C244   1.294       .  A
O235       Cu241   2.051       .  S
O235        C245   1.281       .  A
O236       Cu241   2.069       .  S
O236        C362   1.282       .  A
O237       Cu242   2.067       .  S
O237        C246   1.296       .  A
O238       Cu242   2.065       .  S
O238        C361   1.290       .  A
O239       Cu242   2.063       .  S
O239        C360   1.285       .  A
O240       Cu242   2.093       .  S
O240        C243   1.284       .  A
Cu241      Cu358   2.312   1_554  S
Cu242      Cu357   2.312       .  S
C243        O349   1.293       .  A
C243        C251   1.613       .  S
C244        O355   1.285   1_554  A
C244        C370   1.606       .  S
C245        O354   1.290   1_554  A
C245        C366   1.597       .  S
C246        O352   1.282       .  A
C246        C247   1.606       .  S
C247        C265   1.654       .  S
C247        C333   1.593       .  S
C247        C456   1.625       .  S
C248        C249   1.356       .  D
C248        C343   1.478       .  S
C249        C330   1.506       .  S
C250        C361   1.597       .  S
C250        C266   1.649       .  S
C250        C313   1.562       .  S
C250        C436   1.611       .  S
C251        C268   1.661       .  S
C251        C290   1.602       .  S
C251        C419   1.595       .  S
C252        C253   1.379       .  D
C252        C280   1.477       .  S
C252        C764   1.530       .  S
C253        C270   1.536       .  S
C253        C757   1.484       .  S
C254        C360   1.606       .  S
C254        C267   1.670       .  S
C254        C273   1.596       .  S
C254        C399   1.591       .  S
O255       Cu263   2.126       .  S
O255        C265   1.294       .  A
O256       Cu495   2.120   1_565  S
O256        C266   1.294       .  A
O257       Cu727   2.129       .  S
O257        C267   1.291       .  A
O258        C268   1.289       .  A
O259        C384   1.288   1_554  A
O260       Cu728   2.117       .  S
O260        C383   1.288   1_554  A
O261       Cu496   2.151       .  S
O261        C382   1.291   1_554  A
O262       Cu264   2.065   1_455  S
O262        C381   1.269   1_554  A
Cu263       O488   2.120   1_455  S
Cu263       O721   2.129   1_455  S
Cu263      Cu380   2.249   1_455  S
Cu264       O724   2.117       .  S
Cu264       O493   2.151       .  S
Cu264      Cu379   2.249   1_654  S
C265        O378   1.269       .  A
C266        O377   1.291       .  A
C267        O376   1.288       .  A
C268        O375   1.288       .  A
C269        C270   1.397       .  A
C269        C274   1.397       .  A
C269        F276   1.345       .  S
C270        C271   1.412       .  A
C271        C272   1.402       .  A
C271        F278   1.348       .  S
C272        C273   1.421       .  A
C272        F277   1.342       .  S
C273        C274   1.428       .  A
C274        F275   1.346       .  S
C279        C280   1.397       .  A
C279        C284   1.387       .  A
C279        F286   1.359       .  S
C280        C281   1.397       .  A
C281        C282   1.402       .  A
C281        F288   1.358       .  S
C282        C283   1.424       .  A
C282        F287   1.328       .  S
C283        C370   1.591       .  S
C283        C284   1.422       .  A
C284        F285   1.343       .  S
C289        C290   1.430       .  A
C289        C294   1.391       .  A
C289        F296   1.335       .  S
C290        C291   1.418       .  A
C291        C292   1.407       .  A
C291        F298   1.328       .  S
C292        C293   1.393       .  A
C292        F297   1.354       .  S
C293        C717   1.484       .  S
C293        C294   1.394       .  A
C294        F295   1.360       .  S
C299        C300   1.410       .  A
C299        C304   1.401       .  A
C299        F306   1.349       .  S
C300        C716   1.530       .  S
C300        C301   1.390       .  A
C301        C302   1.396       .  A
C301        F308   1.347       .  S
C302        C303   1.442       .  A
C302        F307   1.357       .  S
C303        C367   1.595   1_554  S
C303        C304   1.421       .  A
C304        F305   1.342       .  S
C309        C310   1.390       .  A
C309        C314   1.388       .  A
C309        F316   1.354       .  S
C310        C311   1.410       .  A
C311        C312   1.396       .  A
C311        F318   1.347       .  S
C312        C313   1.414       .  A
C312        F317   1.348       .  S
C313        C314   1.427       .  A
C314        F315   1.337       .  S
C319        C320   1.422       .  A
C319        C324   1.396       .  A
C319        F326   1.322       .  S
C320        C366   1.611       .  S
C320        C321   1.401       .  A
C321        C322   1.401       .  A
C321        F328   1.334   1_565  S
C322        C323   1.399       .  A
C322        F327   1.357   1_565  S
C323        C324   1.387       .  A
C324        F325   1.356       .  S
C329        C330   1.410       .  A
C329        C334   1.410       .  A
C329        F336   1.355       .  S
C330        C331   1.389       .  A
C331        C332   1.390       .  A
C331        F338   1.352       .  S
C332        C333   1.433       .  A
C332        F337   1.338       .  S
C333        C334   1.424       .  A
C334        F335   1.344       .  S
C339        C340   1.422       .  A
C339        C344   1.398       .  A
C339        F346   1.319       .  S
C340        C363   1.625       .  S
C340        C341   1.446       .  A
C341        C342   1.394       .  A
C341        F348   1.350       .  S
C342        C343   1.391       .  A
C342        F347   1.358       .  S
C343        C344   1.383       .  A
C344        F345   1.351       .  S
O349       Cu357   2.061       .  S
O350       Cu357   2.086       .  S
O350        C360   1.294       .  A
O351       Cu357   2.051       .  S
O351        C361   1.281       .  A
O352       Cu357   2.069       .  S
O353       Cu358   2.067       .  S
O353        C362   1.296   1_556  A
O354       Cu358   2.065       .  S
O355       Cu358   2.063       .  S
O356       Cu358   2.093       .  S
O356        C359   1.284       .  A
C359        C367   1.613       .  S
C362        C363   1.606       .  S
C363        C381   1.654   1_554  S
C363        C449   1.593   1_554  S
C364        C365   1.356       .  D
C364        C459   1.478       .  S
C365        C446   1.506       .  S
C366        C382   1.649   1_554  S
C366        C429   1.562   1_554  S
C367        C384   1.661       .  S
C367        C406   1.602       .  S
C368        C369   1.379       .  D
C368        C396   1.477       .  S
C368        C880   1.530       .  S
C369        C386   1.536       .  S
C369        C873   1.484       .  S
C370        C383   1.670   1_554  S
C370        C389   1.596   1_554  S
O371       Cu379   2.126       .  S
O371        C381   1.294       .  A
O372       Cu611   2.120   1_565  S
O372        C382   1.294       .  A
O373       Cu843   2.129       .  S
O373        C383   1.291       .  A
O374        C384   1.289       .  A
O376       Cu844   2.117       .  S
O377       Cu612   2.151       .  S
O378       Cu380   2.065   1_455  S
Cu379       O604   2.120   1_455  S
Cu379       O837   2.129   1_455  S
Cu380       O840   2.117       .  S
Cu380       O609   2.151       .  S
C385        C386   1.397       .  A
C385        C390   1.397       .  A
C385        F392   1.345       .  S
C386        C387   1.412       .  A
C387        C388   1.402       .  A
C387        F394   1.348       .  S
C388        C389   1.421       .  A
C388        F393   1.342       .  S
C389        C390   1.428       .  A
C390        F391   1.346       .  S
C395        C396   1.397       .  A
C395        C400   1.387       .  A
C395        F402   1.359       .  S
C396        C397   1.397       .  A
C397        C398   1.402       .  A
C397        F404   1.358       .  S
C398        C399   1.424       .  A
C398        F403   1.328       .  S
C399        C400   1.422       .  A
C400        F401   1.343       .  S
C405        C406   1.430       .  A
C405        C410   1.391       .  A
C405        F412   1.335       .  S
C406        C407   1.418       .  A
C407        C408   1.407       .  A
C407        F414   1.328       .  S
C408        C409   1.393       .  A
C408        F413   1.354       .  S
C409        C833   1.484       .  S
C409        C410   1.394       .  A
C410        F411   1.360       .  S
C415        C416   1.410       .  A
C415        C420   1.401       .  A
C415        F422   1.349       .  S
C416        C832   1.530       .  S
C416        C417   1.390       .  A
C417        C418   1.396       .  A
C417        F424   1.347       .  S
C418        C419   1.442       .  A
C418        F423   1.357       .  S
C419        C420   1.421       .  A
C420        F421   1.342       .  S
C425        C426   1.390       .  A
C425        C430   1.388       .  A
C425        F432   1.354       .  S
C426        C427   1.410       .  A
C427        C428   1.396       .  A
C427        F434   1.347       .  S
C428        C429   1.414       .  A
C428        F433   1.348       .  S
C429        C430   1.427       .  A
C430        F431   1.337       .  S
C435        C436   1.422       .  A
C435        C440   1.396       .  A
C435        F442   1.322       .  S
C436        C437   1.401       .  A
C437        C438   1.401       .  A
C437        F444   1.334   1_565  S
C438        C439   1.399       .  A
C438        F443   1.357   1_565  S
C439        C440   1.387       .  A
C440        F441   1.356       .  S
C445        C446   1.410       .  A
C445        C450   1.410       .  A
C445        F452   1.355       .  S
C446        C447   1.389       .  A
C447        C448   1.390       .  A
C447        F454   1.352       .  S
C448        C449   1.433       .  A
C448        F453   1.338       .  S
C449        C450   1.424       .  A
C450        F451   1.344       .  S
C455        C456   1.422       .  A
C455        C460   1.398       .  A
C455        F462   1.319       .  S
C456        C457   1.446       .  A
C457        C458   1.394       .  A
C457        F464   1.350       .  S
C458        C459   1.391       .  A
C458        F463   1.358       .  S
C459        C460   1.383       .  A
C460        F461   1.351       .  S
O465       Cu473   2.061       .  S
O465        C591   1.293   1_554  A
O466       Cu473   2.086       .  S
O466        C476   1.294       .  A
O467       Cu473   2.051       .  S
O467        C477   1.281       .  A
O468       Cu473   2.069       .  S
O468        C594   1.282       .  A
O469       Cu474   2.067       .  S
O469        C478   1.296       .  A
O470       Cu474   2.065       .  S
O470        C593   1.290       .  A
O471       Cu474   2.063       .  S
O471        C592   1.285       .  A
O472       Cu474   2.093       .  S
O472        C475   1.284       .  A
Cu473      Cu590   2.312   1_554  S
Cu474      Cu589   2.312       .  S
C475        O581   1.293       .  A
C475        C483   1.613       .  S
C476        O587   1.285   1_554  A
C476        C602   1.606       .  S
C477        O586   1.290   1_554  A
C477        C598   1.597       .  S
C478        O584   1.282       .  A
C478        C479   1.606       .  S
C479        C497   1.654       .  S
C479        C565   1.593       .  S
C479        C688   1.625       .  S
C480        C481   1.356       .  D
C480        C787   1.480       .  S
C480        C575   1.478   1_565  S
C481        C774   1.497       .  S
C481        C562   1.506   1_565  S
C482        C593   1.597       .  S
C482        C498   1.649       .  S
C482        C545   1.562       .  S
C482        C668   1.611       .  S
C483        C500   1.661       .  S
C483        C522   1.602       .  S
C483        C651   1.595       .  S
C484        C485   1.379       .  D
C484        C512   1.477   1_455  S
C485        C502   1.536   1_455  S
C486        C592   1.606       .  S
C486        C499   1.670       .  S
C486        C505   1.596       .  S
C486        C631   1.591       .  S
O487       Cu495   2.126       .  S
O487        C497   1.294       .  A
O488        C498   1.294       .  A
O489        C499   1.291       .  A
O490       Cu727   2.106       .  S
O490        C500   1.289       .  A
O491       Cu728   2.117       .  S
O491        C616   1.288   1_554  A
O492        C615   1.288   1_554  A
O493        C614   1.291   1_554  A
O494       Cu496   2.065   1_545  S
O494        C613   1.269   1_554  A
Cu495       O722   2.106   1_545  S
Cu495      Cu612   2.249   1_545  S
Cu496       O723   2.117       .  S
Cu496      Cu611   2.249   1_564  S
C497        O610   1.269       .  A
C498        O609   1.291       .  A
C499        O608   1.288       .  A
C500        O607   1.288       .  A
C501        C502   1.397       .  A
C501        C506   1.397       .  A
C501        F508   1.345       .  S
C502        C503   1.412       .  A
C503        C504   1.402       .  A
C503        F510   1.348       .  S
C504        C505   1.421       .  A
C504        F509   1.342       .  S
C505        C506   1.428       .  A
C506        F507   1.346       .  S
C511        C512   1.397       .  A
C511        C516   1.387       .  A
C511        F518   1.359       .  S
C512        C513   1.397       .  A
C513        C514   1.402       .  A
C513        F520   1.358       .  S
C514        C515   1.424       .  A
C514        F519   1.328       .  S
C515        C602   1.591       .  S
C515        C516   1.422       .  A
C516        F517   1.343       .  S
C521        C522   1.430       .  A
C521        C526   1.391       .  A
C521        F528   1.335       .  S
C522        C523   1.418       .  A
C523        C524   1.407       .  A
C523        F530   1.328       .  S
C524        C525   1.393       .  A
C524        F529   1.354       .  S
C525        C526   1.394       .  A
C526        F527   1.360       .  S
C531        C532   1.410       .  A
C531        C536   1.401       .  A
C531        F538   1.349       .  S
C532        C533   1.390       .  A
C533        C534   1.396       .  A
C533        F540   1.347       .  S
C534        C535   1.442       .  A
C534        F539   1.357       .  S
C535        C599   1.595   1_554  S
C535        C536   1.421       .  A
C536        F537   1.342       .  S
C541        C542   1.390       .  A
C541        C546   1.388       .  A
C541        F548   1.354       .  S
C542        C713   1.497       .  S
C542        C543   1.410       .  A
C543        C544   1.396       .  A
C543        F550   1.347       .  S
C544        C545   1.414       .  A
C544        F549   1.348       .  S
C545        C546   1.427       .  A
C546        F547   1.337       .  S
C551        C552   1.422       .  A
C551        C556   1.396       .  A
C551        F558   1.322       .  S
C552        C598   1.611       .  S
C552        C553   1.401       .  A
C553        C554   1.401       .  A
C553        F560   1.334       .  S
C554        C555   1.399       .  A
C554        F559   1.357       .  S
C555        C712   1.480       .  S
C555        C556   1.387       .  A
C556        F557   1.356       .  S
C561        C562   1.410       .  A
C561        C566   1.410       .  A
C561        F568   1.355       .  S
C562        C563   1.389       .  A
C563        C564   1.390       .  A
C563        F570   1.352       .  S
C564        C565   1.433       .  A
C564        F569   1.338       .  S
C565        C566   1.424       .  A
C566        F567   1.344       .  S
C571        C572   1.422       .  A
C571        C576   1.398       .  A
C571        F578   1.319       .  S
C572        C595   1.625       .  S
C572        C573   1.446       .  A
C573        C574   1.394       .  A
C573        F580   1.350       .  S
C574        C575   1.391       .  A
C574        F579   1.358   1_545  S
C575        C576   1.383       .  A
C576        F577   1.351       .  S
O581       Cu589   2.061       .  S
O582       Cu589   2.086       .  S
O582        C592   1.294       .  A
O583       Cu589   2.051       .  S
O583        C593   1.281       .  A
O584       Cu589   2.069       .  S
O585       Cu590   2.067       .  S
O585        C594   1.296   1_556  A
O586       Cu590   2.065       .  S
O587       Cu590   2.063       .  S
O588       Cu590   2.093       .  S
O588        C591   1.284       .  A
C591        C599   1.613       .  S
C594        C595   1.606       .  S
C595        C613   1.654   1_554  S
C595        C681   1.593   1_554  S
C596        C597   1.356       .  D
C596        C903   1.480       .  S
C596        C691   1.478   1_565  S
C597        C890   1.497       .  S
C597        C678   1.506   1_565  S
C598        C614   1.649   1_554  S
C598        C661   1.562   1_554  S
C599        C616   1.661       .  S
C599        C638   1.602       .  S
C600        C601   1.379       .  D
C600        C628   1.477   1_455  S
C601        C618   1.536   1_455  S
C602        C615   1.670   1_554  S
C602        C621   1.596   1_554  S
O603       Cu611   2.126       .  S
O603        C613   1.294       .  A
O604        C614   1.294       .  A
O605        C615   1.291       .  A
O606       Cu843   2.106       .  S
O606        C616   1.289       .  A
O607       Cu844   2.117       .  S
O610       Cu612   2.065   1_545  S
Cu611       O838   2.106   1_545  S
Cu612       O839   2.117       .  S
C617        C618   1.397       .  A
C617        C622   1.397       .  A
C617        F624   1.345       .  S
C618        C619   1.412       .  A
C619        C620   1.402       .  A
C619        F626   1.348       .  S
C620        C621   1.421       .  A
C620        F625   1.342       .  S
C621        C622   1.428       .  A
C622        F623   1.346       .  S
C627        C628   1.397       .  A
C627        C632   1.387       .  A
C627        F634   1.359       .  S
C628        C629   1.397       .  A
C629        C630   1.402       .  A
C629        F636   1.358       .  S
C630        C631   1.424       .  A
C630        F635   1.328       .  S
C631        C632   1.422       .  A
C632        F633   1.343       .  S
C637        C638   1.430       .  A
C637        C642   1.391       .  A
C637        F644   1.335       .  S
C638        C639   1.418       .  A
C639        C640   1.407       .  A
C639        F646   1.328       .  S
C640        C641   1.393       .  A
C640        F645   1.354       .  S
C641        C642   1.394       .  A
C642        F643   1.360       .  S
C647        C648   1.410       .  A
C647        C652   1.401       .  A
C647        F654   1.349       .  S
C648        C649   1.390       .  A
C649        C650   1.396       .  A
C649        F656   1.347       .  S
C650        C651   1.442       .  A
C650        F655   1.357       .  S
C651        C652   1.421       .  A
C652        F653   1.342       .  S
C657        C658   1.390       .  A
C657        C662   1.388       .  A
C657        F664   1.354       .  S
C658        C829   1.497       .  S
C658        C659   1.410       .  A
C659        C660   1.396       .  A
C659        F666   1.347       .  S
C660        C661   1.414       .  A
C660        F665   1.348       .  S
C661        C662   1.427       .  A
C662        F663   1.337       .  S
C667        C668   1.422       .  A
C667        C672   1.396       .  A
C667        F674   1.322       .  S
C668        C669   1.401       .  A
C669        C670   1.401       .  A
C669        F676   1.334       .  S
C670        C671   1.399       .  A
C670        F675   1.357       .  S
C671        C828   1.480       .  S
C671        C672   1.387       .  A
C672        F673   1.356       .  S
C677        C678   1.410       .  A
C677        C682   1.410       .  A
C677        F684   1.355       .  S
C678        C679   1.389       .  A
C679        C680   1.390       .  A
C679        F686   1.352       .  S
C680        C681   1.433       .  A
C680        F685   1.338       .  S
C681        C682   1.424       .  A
C682        F683   1.344       .  S
C687        C688   1.422       .  A
C687        C692   1.398       .  A
C687        F694   1.319       .  S
C688        C689   1.446       .  A
C689        C690   1.394       .  A
C689        F696   1.350       .  S
C690        C691   1.391       .  A
C690        F695   1.358   1_545  S
C691        C692   1.383       .  A
C692        F693   1.351       .  S
O697       Cu705   2.061       .  S
O697        C823   1.293   1_554  A
O698       Cu705   2.086       .  S
O698        C708   1.294       .  A
O699       Cu705   2.051       .  S
O699        C709   1.281       .  A
O700       Cu705   2.069       .  S
O700        C826   1.282       .  A
O701       Cu706   2.067       .  S
O701        C710   1.296       .  A
O702       Cu706   2.065       .  S
O702        C825   1.290       .  A
O703       Cu706   2.063       .  S
O703        C824   1.285       .  A
O704       Cu706   2.093       .  S
O704        C707   1.284       .  A
Cu705      Cu822   2.312   1_554  S
Cu706      Cu821   2.312       .  S
C707        O813   1.293       .  A
C707        C715   1.613       .  S
C708        O819   1.285   1_554  A
C708        C834   1.606       .  S
C709        O818   1.290   1_554  A
C709        C830   1.597       .  S
C710        O816   1.282       .  A
C710        C711   1.606       .  S
C711        C729   1.654       .  S
C711        C797   1.593       .  S
C711        C920   1.625       .  S
C712        C713   1.356       .  D
C712        C807   1.478       .  S
C713        C794   1.506       .  S
C714        C825   1.597       .  S
C714        C730   1.649       .  S
C714        C777   1.562       .  S
C714        C900   1.611       .  S
C715        C732   1.661       .  S
C715        C754   1.602       .  S
C715        C883   1.595       .  S
C716        C717   1.379       .  D
C716        C744   1.477   1_455  S
C717        C734   1.536   1_455  S
C718        C824   1.606       .  S
C718        C731   1.670       .  S
C718        C737   1.596       .  S
C718        C863   1.591       .  S
O719       Cu727   2.126       .  S
O719        C729   1.294       .  A
O720        C730   1.294       .  A
O721        C731   1.291       .  A
O722        C732   1.289       .  A
O723        C848   1.288   1_554  A
O724        C847   1.288   1_554  A
O725        C846   1.291   1_554  A
O726       Cu728   2.065       .  S
O726        C845   1.269   1_554  A
Cu727      Cu844   2.249       .  S
Cu728      Cu843   2.249   1_554  S
C729        O842   1.269       .  A
C730        O841   1.291       .  A
C731        O840   1.288       .  A
C732        O839   1.288       .  A
C733        C734   1.397       .  A
C733        C738   1.397       .  A
C733        F740   1.345       .  S
C734        C735   1.412       .  A
C735        C736   1.402       .  A
C735        F742   1.348       .  S
C736        C737   1.421       .  A
C736        F741   1.342       .  S
C737        C738   1.428       .  A
C738        F739   1.346       .  S
C743        C744   1.397       .  A
C743        C748   1.387       .  A
C743        F750   1.359       .  S
C744        C745   1.397       .  A
C745        C746   1.402       .  A
C745        F752   1.358       .  S
C746        C747   1.424       .  A
C746        F751   1.328       .  S
C747        C834   1.591       .  S
C747        C748   1.422       .  A
C748        F749   1.343       .  S
C753        C754   1.430       .  A
C753        C758   1.391       .  A
C753        F760   1.335       .  S
C754        C755   1.418       .  A
C755        C756   1.407       .  A
C755        F762   1.328       .  S
C756        C757   1.393       .  A
C756        F761   1.354       .  S
C757        C758   1.394       .  A
C758        F759   1.360       .  S
C763        C764   1.410       .  A
C763        C768   1.401       .  A
C763        F770   1.349       .  S
C764        C765   1.390       .  A
C765        C766   1.396       .  A
C765        F772   1.347       .  S
C766        C767   1.442       .  A
C766        F771   1.357       .  S
C767        C831   1.595   1_554  S
C767        C768   1.421       .  A
C768        F769   1.342       .  S
C773        C774   1.390       .  A
C773        C778   1.388       .  A
C773        F780   1.354       .  S
C774        C775   1.410       .  A
C775        C776   1.396       .  A
C775        F782   1.347       .  S
C776        C777   1.414       .  A
C776        F781   1.348       .  S
C777        C778   1.427       .  A
C778        F779   1.337       .  S
C783        C784   1.422       .  A
C783        C788   1.396       .  A
C783        F790   1.322       .  S
C784        C830   1.611       .  S
C784        C785   1.401       .  A
C785        C786   1.401       .  A
C785        F792   1.334   1_565  S
C786        C787   1.399       .  A
C786        F791   1.357   1_565  S
C787        C788   1.387       .  A
C788        F789   1.356       .  S
C793        C794   1.410       .  A
C793        C798   1.410       .  A
C793        F800   1.355       .  S
C794        C795   1.389       .  A
C795        C796   1.390       .  A
C795        F802   1.352       .  S
C796        C797   1.433       .  A
C796        F801   1.338       .  S
C797        C798   1.424       .  A
C798        F799   1.344       .  S
C803        C804   1.422       .  A
C803        C808   1.398       .  A
C803        F810   1.319       .  S
C804        C827   1.625       .  S
C804        C805   1.446       .  A
C805        C806   1.394       .  A
C805        F812   1.350       .  S
C806        C807   1.391       .  A
C806        F811   1.358       .  S
C807        C808   1.383       .  A
C808        F809   1.351       .  S
O813       Cu821   2.061       .  S
O814       Cu821   2.086       .  S
O814        C824   1.294       .  A
O815       Cu821   2.051       .  S
O815        C825   1.281       .  A
O816       Cu821   2.069       .  S
O817       Cu822   2.067       .  S
O817        C826   1.296   1_556  A
O818       Cu822   2.065       .  S
O819       Cu822   2.063       .  S
O820       Cu822   2.093       .  S
O820        C823   1.284       .  A
C823        C831   1.613       .  S
C826        C827   1.606       .  S
C827        C845   1.654   1_554  S
C827        C913   1.593   1_554  S
C828        C829   1.356       .  D
C828        C923   1.478       .  S
C829        C910   1.506       .  S
C830        C846   1.649   1_554  S
C830        C893   1.562   1_554  S
C831        C848   1.661       .  S
C831        C870   1.602       .  S
C832        C833   1.379       .  D
C832        C860   1.477   1_455  S
C833        C850   1.536   1_455  S
C834        C847   1.670   1_554  S
C834        C853   1.596   1_554  S
O835       Cu843   2.126       .  S
O835        C845   1.294       .  A
O836        C846   1.294       .  A
O837        C847   1.291       .  A
O838        C848   1.289       .  A
O842       Cu844   2.065       .  S
C849        C850   1.397       .  A
C849        C854   1.397       .  A
C849        F856   1.345       .  S
C850        C851   1.412       .  A
C851        C852   1.402       .  A
C851        F858   1.348       .  S
C852        C853   1.421       .  A
C852        F857   1.342       .  S
C853        C854   1.428       .  A
C854        F855   1.346       .  S
C859        C860   1.397       .  A
C859        C864   1.387       .  A
C859        F866   1.359       .  S
C860        C861   1.397       .  A
C861        C862   1.402       .  A
C861        F868   1.358       .  S
C862        C863   1.424       .  A
C862        F867   1.328       .  S
C863        C864   1.422       .  A
C864        F865   1.343       .  S
C869        C870   1.430       .  A
C869        C874   1.391       .  A
C869        F876   1.335       .  S
C870        C871   1.418       .  A
C871        C872   1.407       .  A
C871        F878   1.328       .  S
C872        C873   1.393       .  A
C872        F877   1.354       .  S
C873        C874   1.394       .  A
C874        F875   1.360       .  S
C879        C880   1.410       .  A
C879        C884   1.401       .  A
C879        F886   1.349       .  S
C880        C881   1.390       .  A
C881        C882   1.396       .  A
C881        F888   1.347       .  S
C882        C883   1.442       .  A
C882        F887   1.357       .  S
C883        C884   1.421       .  A
C884        F885   1.342       .  S
C889        C890   1.390       .  A
C889        C894   1.388       .  A
C889        F896   1.354       .  S
C890        C891   1.410       .  A
C891        C892   1.396       .  A
C891        F898   1.347       .  S
C892        C893   1.414       .  A
C892        F897   1.348       .  S
C893        C894   1.427       .  A
C894        F895   1.337       .  S
C899        C900   1.422       .  A
C899        C904   1.396       .  A
C899        F906   1.322       .  S
C900        C901   1.401       .  A
C901        C902   1.401       .  A
C901        F908   1.334   1_565  S
C902        C903   1.399       .  A
C902        F907   1.357   1_565  S
C903        C904   1.387       .  A
C904        F905   1.356       .  S
C909        C910   1.410       .  A
C909        C914   1.410       .  A
C909        F916   1.355       .  S
C910        C911   1.389       .  A
C911        C912   1.390       .  A
C911        F918   1.352       .  S
C912        C913   1.433       .  A
C912        F917   1.338       .  S
C913        C914   1.424       .  A
C914        F915   1.344       .  S
C919        C920   1.422       .  A
C919        C924   1.398       .  A
C919        F926   1.319       .  S
C920        C921   1.446       .  A
C921        C922   1.394       .  A
C921        F928   1.350       .  S
C922        C923   1.391       .  A
C922        F927   1.358       .  S
C923        C924   1.383       .  A
C924        F925   1.351       .  S
