geometry optimzed in LAMMPS
_audit_creation_date              2020-11-30 
_audit_creation_method            'lammps2cif' 
_symmetry_space_group_name_H-M    'P1' 
_symmetry_Int_Tables_number       1 
_symmetry_cell_setting            triclinic 
loop_ 
_symmetry_equiv_pos_as_xyz 
  x,y,z 
_cell_length_a                    47.88309574003511 
_cell_length_b                    48.0314235113184 
_cell_length_c                    48.02464810516211 
_cell_angle_alpha                 89.7989724182585 
_cell_angle_beta                  90.07859885156627 
_cell_angle_gamma                 89.93171674838716 
loop_ 
_atom_site_label 
_atom_site_type_symbol 
_atom_site_fract_x 
_atom_site_fract_y 
_atom_site_fract_z 
_atom_site_charge 
N1          N  0.55879923  0.67989699  0.00159829    -0.27390
N2          N  0.54432502  0.65682901  0.00526415    -0.35250
C3          C  0.56186621  0.63522646  0.00748180     0.00950
C4          C  0.58890448  0.64495523  0.00507115     0.06970
C5          C  0.58625081  0.67353694  0.00140060    -0.06130
H6          H  0.55536952  0.61385343  0.01048197     0.07640
H7          H  0.60282391  0.68867354  0.99950180     0.08840
Cu8        Cu  0.50144917  0.65539285  0.00667360     0.44170
Cu9        Cu  0.53886840  0.71811389  0.99838488     0.41990
Cu10       Cu  0.46074318  0.71741555  0.00047349     0.43880
N11         N  0.45870624  0.65530728  0.00271182    -0.34780
N12         N  0.44320496  0.67787084  0.99970352    -0.29030
C13         C  0.41643649  0.67009339  0.99572271    -0.05130
C14         C  0.41539293  0.64121859  0.99579890     0.07080
C15         C  0.44249311  0.63270324  0.00087669     0.00880
H16         H  0.39917991  0.68431268  0.99252976     0.08530
H17         H  0.45002547  0.61153775  0.00281709     0.07610
N18         N  0.48567062  0.75285093  0.00157104    -0.36230
N19         N  0.51328737  0.75295668  0.00019350    -0.28410
C20         C  0.52236524  0.77938965  0.00080350    -0.03650
C21         C  0.49952488  0.79686494  0.00320628     0.04960
C22         C  0.47659560  0.77929923  0.00327888     0.03050
H23         H  0.54401078  0.78522993  0.99859173     0.08160
H24         H  0.45484825  0.78532004  0.00432497     0.06990
N25         N  0.70627301  0.52927375  0.99700421    -0.27390
N26         N  0.68296178  0.51482571  0.99443830    -0.35250
C27         C  0.66105485  0.53211835  0.99601883     0.00950
C28         C  0.67093197  0.55875458  0.00021569     0.06970
C29         C  0.69974975  0.55637541  0.00035414    -0.06130
H30         H  0.63946360  0.52561175  0.99487097     0.07640
H31         H  0.71474662  0.57284929  0.00375755     0.08840
Cu32       Cu  0.68126908  0.47202704  0.99217780     0.44170
Cu33       Cu  0.74505104  0.51005001  0.99800352     0.41990
Cu34       Cu  0.74353866  0.43275223  0.00207483     0.43880
N35         N  0.68187121  0.42916603  0.99419081    -0.34780
N36         N  0.70473725  0.41424851  0.99776746    -0.29030
C37         C  0.69788012  0.38705467  0.99820938    -0.05130
C38         C  0.66908118  0.38482728  0.99510112     0.07080
C39         C  0.65985702  0.41208524  0.99255705     0.00880
H40         H  0.71296499  0.37046743  0.00018055     0.08530
H41         H  0.63851379  0.41912264  0.99015826     0.07610
N42         N  0.77929239  0.45701373  0.00264529    -0.36230
N43         N  0.77992137  0.48445854  0.00029848    -0.28410
C44         C  0.80667093  0.49283088  0.99972045    -0.03650
C45         C  0.82376400  0.46962072  0.00163887     0.04960
C46         C  0.80558314  0.44732604  0.00392817     0.03050
H47         H  0.81320204  0.51429517  0.99764433     0.08160
H48         H  0.81071484  0.42562950  0.00676794     0.06990
N49         N  0.44270090  0.26631663  0.00607692    -0.27390
N50         N  0.45802623  0.28698502  0.01576279    -0.35250
C51         C  0.44255933  0.31023915  0.01657340     0.00950
C52         C  0.41628824  0.30421216  0.00635094     0.06970
C53         C  0.41687484  0.27600461  0.00035377    -0.06130
H54         H  0.45021572  0.33018160  0.02359162     0.07640
H55         H  0.40018377  0.26375579  0.99142968     0.08840
Cu56       Cu  0.50053653  0.28472615  0.02214016     0.44170
Cu57       Cu  0.45949882  0.22705108  0.99921752     0.41990
Cu58       Cu  0.53571257  0.22844894  0.98899982     0.43880
N59         N  0.54276553  0.28491693  0.01389401    -0.34780
N60         N  0.55574790  0.26483284  0.00033403    -0.29030
C61         C  0.58195940  0.27311210  0.99449518    -0.05130
C62         C  0.58534975  0.29973232  0.00480526     0.07080
C63         C  0.56018650  0.30652395  0.01700053     0.00880
H64         H  0.59678632  0.26134847  0.98227413     0.08530
H65         H  0.55434705  0.32642247  0.02575091     0.07610
N66         N  0.51152003  0.19279430  0.98867391    -0.36230
N67         N  0.48442175  0.19202479  0.99379116    -0.28410
C68         C  0.47644978  0.16528843  0.99590656    -0.03650
C69         C  0.49960033  0.14827758  0.99201381     0.04960
C70         C  0.52134210  0.16666537  0.98696852     0.03050
H71         H  0.45541478  0.15874950  0.00084593     0.08160
H72         H  0.54286835  0.16192300  0.98255874     0.06990
N73         N  0.29317466  0.53051614  0.99978974    -0.27330
N74         N  0.31470798  0.51637717  0.00965363    -0.35250
C75         C  0.33670243  0.53342792  0.01191919     0.00950
C76         C  0.32868343  0.55969743  0.00328450     0.06970
C77         C  0.30089866  0.55718348  0.99564532    -0.06130
H78         H  0.35750583  0.52681314  0.01780387     0.07640
H79         H  0.28785864  0.57296971  0.98611603     0.08840
Cu80       Cu  0.31510504  0.47379052  0.01497179     0.44170
Cu81       Cu  0.25564682  0.51124858  0.99067519     0.41990
Cu82       Cu  0.25476791  0.43421316  0.99818521     0.43880
N83         N  0.31570542  0.43112913  0.01061697    -0.34780
N84         N  0.29373267  0.41611885  0.00363375    -0.29030
C85         C  0.30186025  0.38952837  0.99974532    -0.05130
C86         C  0.33040350  0.38790818  0.00463771     0.07080
C87         C  0.33833226  0.41472215  0.01138175     0.00880
H88         H  0.28823229  0.37311723  0.99259717     0.08530
H89         H  0.35927239  0.42198477  0.01571253     0.07610
N90         N  0.21971599  0.45943056  0.99464238    -0.36230
N91         N  0.22015858  0.48668760  0.99069729    -0.28410
C92         C  0.19382409  0.49626924  0.98982528    -0.03650
C93         C  0.17575701  0.47416655  0.99419287     0.04960
C94         C  0.19304265  0.45111191  0.99680861     0.03050
H95         H  0.18866950  0.51782275  0.98620682     0.08160
H96         H  0.18675045  0.42983566  0.00075074     0.06990
N97         N  0.99764436  0.53079381  0.70643412    -0.27390
N98         N  0.99732877  0.51611003  0.68324196    -0.35250
C99         C  0.99920941  0.53336904  0.66133793     0.00950
C100        C  0.00102878  0.56029946  0.67110742     0.06970
C101        C  0.99957804  0.55805371  0.69983977    -0.06130
H102        H  0.99919853  0.52675353  0.63982657     0.07640
H103        H  0.00039661  0.57484377  0.71477344     0.08840
Cu104      Cu  0.99544842  0.47324726  0.68215252     0.44170
Cu105      Cu  0.99646949  0.51155786  0.74518916     0.41990
Cu106      Cu  0.99548776  0.43382675  0.74546447     0.43880
N107        N  0.99676886  0.43035365  0.68329132    -0.34780
N108        N  0.99681483  0.41530645  0.70637409    -0.29030
C109        C  0.99887984  0.38814836  0.69951964    -0.05130
C110        C  0.00067651  0.38636459  0.67077271     0.07080
C111        C  0.99890087  0.41344734  0.66125807     0.00880
H112        H  0.99970217  0.37111836  0.71430086     0.08530
H113        H  0.99924103  0.42043649  0.63982139     0.07610
N114        N  0.99524158  0.45892464  0.78075000    -0.36230
N115        N  0.99559403  0.48650339  0.78053416    -0.28410
C116        C  0.99558139  0.49573529  0.80691912    -0.03650
C117        C  0.99485628  0.47299859  0.82463947     0.04960
C118        C  0.99501653  0.45001977  0.80734518     0.03050
H119        H  0.99688769  0.51744025  0.81263040     0.08160
H120        H  0.99494753  0.42837004  0.81364767     0.06990
N121        N  0.99469643  0.68021896  0.55778209    -0.27390
N122        N  0.99546633  0.65688555  0.54332684    -0.35250
C123        C  0.99701042  0.63518001  0.56087115     0.00950
C124        C  0.99695352  0.64516632  0.58777501     0.06970
C125        C  0.99548190  0.67388840  0.58517402    -0.06130
H126        H  0.99860708  0.61365266  0.55448896     0.07640
H127        H  0.99608747  0.68902672  0.60178391     0.08840
Cu128      Cu  0.99615780  0.65517399  0.50044960     0.44170
Cu129      Cu  0.99494814  0.71889906  0.53824128     0.41990
Cu130      Cu  0.00013657  0.71775771  0.46068924     0.43880
N131        N  0.99935181  0.65563415  0.45765022    -0.34780
N132        N  0.00092371  0.67853796  0.44244204    -0.29030
C133        C  0.00326964  0.67134800  0.41539788    -0.05130
C134        C  0.00367921  0.64251928  0.41384397     0.07080
C135        C  0.00071735  0.63336981  0.44096671     0.00880
H136        H  0.00486991  0.68593043  0.39825694     0.08530
H137        H  0.99925593  0.61204058  0.44811385     0.07610
N138        N  0.99875276  0.75346732  0.48512404    -0.36230
N139        N  0.99691042  0.75387513  0.51264299    -0.28410
C140        C  0.99666140  0.78049896  0.52123135    -0.03650
C141        C  0.99805105  0.79767669  0.49810971     0.04960
C142        C  0.99966580  0.77982185  0.47561334     0.03050
H143        H  0.99538617  0.78690124  0.54277073     0.08160
H144        H  0.00205110  0.78541753  0.45393024     0.06990
N145        N  0.99228443  0.53030848  0.29356070    -0.27390
N146        N  0.99159617  0.51546012  0.31676506    -0.35250
C147        C  0.99360919  0.53256888  0.33866754     0.00950
C148        C  0.99543848  0.55961009  0.32898150     0.06970
C149        C  0.99456511  0.55749780  0.30019406    -0.06130
H150        H  0.99452614  0.52574251  0.36014690     0.07640
H151        H  0.99687886  0.57420024  0.28521746     0.08840
Cu152      Cu  0.99088401  0.47246964  0.31825345     0.44170
Cu153      Cu  0.99323711  0.51158485  0.25457476     0.41990
Cu154      Cu  0.00828606  0.43581936  0.25647987     0.43880
N155        N  0.99529734  0.42970104  0.31701271    -0.34780
N156        N  0.00302115  0.41596182  0.29451267    -0.29030
C157        C  0.00524837  0.38868143  0.30084043    -0.05130
C158        C  0.99816889  0.38530827  0.32856343     0.07080
C159        C  0.99213881  0.41167197  0.33818289     0.00880
H160        H  0.01134941  0.37258258  0.28636610     0.08530
H161        H  0.98639194  0.41739432  0.35918006     0.07610
N162        N  0.00441179  0.45960420  0.22053700    -0.36230
N163        N  0.99786034  0.48636248  0.21971038    -0.28410
C164        C  0.99529965  0.49427501  0.19293949    -0.03650
C165        C  0.00030975  0.47144674  0.17604369     0.04960
C166        C  0.00643184  0.44995925  0.19439121     0.03050
H167        H  0.99002286  0.51516450  0.18625102     0.08160
H168        H  0.01253555  0.42892981  0.18945445     0.06990
N169        N  0.99748077  0.26676856  0.55751511    -0.27390
N170        N  0.99982258  0.28990014  0.54274295    -0.35250
C171        C  0.00151710  0.31168157  0.56004550     0.00950
C172        C  0.99993363  0.30196305  0.58710013     0.06970
C173        C  0.99742873  0.27330457  0.58481246    -0.06130
H174        H  0.00391443  0.33309953  0.55341246     0.07640
H175        H  0.99660599  0.25827407  0.60160759     0.08840
Cu176      Cu  0.00115007  0.29120090  0.49976723     0.44170
Cu177      Cu  0.99631499  0.22784420  0.53882453     0.41990
Cu178      Cu  0.99783660  0.22737806  0.46165794     0.43880
N179        N  0.00115022  0.28950325  0.45679615    -0.34780
N180        N  0.99955043  0.26615508  0.44239350    -0.29030
C181        C  0.99946335  0.27242471  0.41499592    -0.05130
C182        C  0.00127745  0.30105503  0.41233552     0.07080
C183        C  0.00222117  0.31118973  0.43913923     0.00880
H184        H  0.99813823  0.25734856  0.39836630     0.08530
H185        H  0.00333342  0.33278836  0.44536574     0.07610
N186        N  0.99830117  0.19203890  0.48680995    -0.36230
N187        N  0.99795288  0.19224420  0.51438027    -0.28410
C188        C  0.99904071  0.16585963  0.52378713    -0.03650
C189        C  0.00035423  0.14820762  0.50112923     0.04960
C190        C  0.99950075  0.16549314  0.47805041     0.03050
H191        H  0.99825171  0.16004785  0.54553919     0.08160
H192        H  0.99993769  0.15922842  0.45643655     0.06990
N193        N  0.44212287  0.96856735  0.70790285    -0.27390
N194        N  0.45672526  0.96403268  0.68504532    -0.35250
C195        C  0.43944327  0.96413431  0.66304740     0.00950
C196        C  0.41257573  0.96867472  0.67243971     0.06970
C197        C  0.41495107  0.97147291  0.70103586    -0.06130
H198        H  0.44611348  0.96238623  0.64160561     0.07640
H199        H  0.39853401  0.97691617  0.71548527     0.08840
Cu200      Cu  0.49981698  0.96160792  0.68406939     0.44170
Cu201      Cu  0.46134358  0.97379560  0.74624016     0.41990
Cu202      Cu  0.53891244  0.97500438  0.74614048     0.43880
N203        N  0.54285329  0.96490479  0.68486315    -0.34780
N204        N  0.55764074  0.97006889  0.70750273    -0.29030
C205        C  0.58465930  0.97338705  0.70029247    -0.05130
C206        C  0.58676796  0.97015016  0.67169634     0.07080
C207        C  0.55985771  0.96490950  0.66271176     0.00880
H208        H  0.60110482  0.97932586  0.71453144     0.08530
H209        H  0.55294802  0.96247166  0.64139668     0.07610
N210        N  0.51397456  0.97903390  0.78126913    -0.36230
N211        N  0.48632859  0.97857941  0.78122956    -0.28410
C212        C  0.47719279  0.98012609  0.80761209    -0.03650
C213        C  0.50006301  0.98187341  0.82511772     0.04960
C214        C  0.52304816  0.98088402  0.80771205     0.03050
H215        H  0.45546097  0.97917038  0.81368276     0.08160
H216        H  0.54477558  0.97987987  0.81377029     0.06990
N217        N  0.70635358  0.97595302  0.55781644    -0.27390
N218        N  0.68362231  0.97291019  0.54258372    -0.35250
C219        C  0.66107628  0.97351723  0.55896853     0.00950
C220        C  0.66966012  0.97798304  0.58600832     0.06970
C221        C  0.69866490  0.97887007  0.58471999    -0.06130
H222        H  0.63997330  0.97046799  0.55158211     0.07640
H223        H  0.71297382  0.98177737  0.60191507     0.08840
Cu224      Cu  0.68332262  0.96970463  0.50007452     0.44170
Cu225      Cu  0.74560850  0.97573548  0.53897624     0.41990
Cu226      Cu  0.74488760  0.96778349  0.46038404     0.43880
N227        N  0.68283856  0.96767942  0.45748439    -0.34780
N228        N  0.70545374  0.96618057  0.44193003    -0.29030
C229        C  0.69754681  0.96431053  0.41498505    -0.05130
C230        C  0.66848413  0.96431078  0.41388454     0.07080
C231        C  0.66012093  0.96717995  0.44125529     0.00880
H232        H  0.71179315  0.96306909  0.39756990     0.08530
H233        H  0.63898708  0.96906700  0.44895354     0.07610
N234        N  0.78031260  0.97137117  0.48557068    -0.36230
N235        N  0.78060328  0.97407446  0.51305615    -0.28410
C236        C  0.80730813  0.97551067  0.52172583    -0.03650
C237        C  0.82462746  0.97404960  0.49874981     0.04960
C238        C  0.80680311  0.97115003  0.47625011     0.03050
H239        H  0.81367565  0.97757251  0.54324455     0.08160
H240        H  0.81256356  0.96830113  0.45469072     0.06990
N241        N  0.55888305  0.97961255  0.29070163    -0.27390
N242        N  0.54488314  0.98995896  0.31197643    -0.35250
C243        C  0.56180422  0.99123113  0.33420908     0.00950
C244        C  0.58785820  0.98142507  0.32666492     0.06970
C245        C  0.58528678  0.97413953  0.29887488    -0.06130
H246        H  0.55507991  0.99691663  0.35492849     0.07640
H247        H  0.60067894  0.96362680  0.28622339     0.08840
Cu248      Cu  0.50214086  0.99603796  0.31209046     0.44170
Cu249      Cu  0.53946410  0.97028604  0.25320967     0.41990
Cu250      Cu  0.46224761  0.97147243  0.25427938     0.43880
N251        N  0.45953703  0.98942080  0.31381199    -0.34780
N252        N  0.44470866  0.97915942  0.29303454    -0.29030
C253        C  0.41883024  0.97318123  0.30232347    -0.05130
C254        C  0.41760551  0.97970999  0.33037816     0.07080
C255        C  0.44363100  0.99037143  0.33676252     0.00880
H256        H  0.40267616  0.96337340  0.29002783     0.08530
H257        H  0.45094708  0.99726206  0.35689801     0.07610
N258        N  0.48643554  0.96660699  0.21872127    -0.36230
N259        N  0.51407240  0.96563221  0.21844429    -0.28410
C260        C  0.52284102  0.96377287  0.19193163    -0.03650
C261        C  0.49968714  0.96352410  0.17471248     0.04960
C262        C  0.47699716  0.96561076  0.19235548     0.03050
H263        H  0.54451377  0.96425334  0.18563975     0.08160
H264        H  0.45524237  0.96710638  0.18640977     0.06990
N265        N  0.29555885  0.96683592  0.44265035    -0.27390
N266        N  0.31819984  0.96979058  0.45802304    -0.35250
C267        C  0.34070884  0.97044976  0.44156084     0.00950
C268        C  0.33219690  0.96778889  0.41417033     0.06970
C269        C  0.30322630  0.96542998  0.41563129    -0.06130
H270        H  0.36187258  0.97295947  0.44906667     0.07640
H271        H  0.28877059  0.96240183  0.39864091     0.08840
Cu272      Cu  0.31814641  0.97284820  0.50066216     0.44170
Cu273      Cu  0.25611684  0.96570658  0.46103233     0.41990
Cu274      Cu  0.25509121  0.97610479  0.53877413     0.43880
N275        N  0.31715784  0.97641767  0.54324531    -0.34780
N276        N  0.29401862  0.97771866  0.55808338    -0.29030
C277        C  0.30097079  0.97982223  0.58525908    -0.05130
C278        C  0.32990372  0.98037018  0.58720680     0.07080
C279        C  0.33931718  0.97767587  0.56021200     0.00880
H280        H  0.28618322  0.98092802  0.60223006     0.08530
H281        H  0.36075440  0.97601424  0.55334476     0.07610
N282        N  0.22010769  0.97267773  0.51312175    -0.36230
N283        N  0.22043143  0.96817835  0.48588351    -0.28410
C284        C  0.19392450  0.96643394  0.47667876    -0.03650
C285        C  0.17617820  0.97008696  0.49904663     0.04960
C286        C  0.19341517  0.97421890  0.52172262     0.03050
H287        H  0.18802298  0.96328083  0.45516839     0.08160
H288        H  0.18702514  0.97784021  0.54300524     0.06990
O289        O  0.00193125  0.93125127  0.52338801    -0.73050
O290        O  0.00061344  0.01483353  0.52302644    -0.74030
O291        O  0.95912602  0.97228664  0.52362822    -0.62650
O292        O  0.04302705  0.97378392  0.52276261    -0.71060
O293        O  0.04232801  0.97252180  0.47651750    -0.70610
O294        O  0.95846000  0.97333122  0.47745061    -0.61860
O295        O  0.00039302  0.01471332  0.47680148    -0.74370
O296        O  0.00000364  0.93121745  0.47723094    -0.73150
Cu297      Cu  0.00117985  0.97304612  0.52482651     1.04560
Cu298      Cu  0.00030703  0.97295355  0.47538893     1.04330
C299        C  0.00112101  0.91803846  0.50036398     0.93150
C300        C  0.00026114  0.02793384  0.49982972     0.92290
C301        C  0.94554151  0.97262032  0.50069800     0.84440
C302        C  0.05582544  0.97319280  0.49946751     0.90710
O303        O  0.47375351  0.93065252  0.00064765    -0.73050
O304        O  0.47381367  0.01383130  0.99959996    -0.74030
O305        O  0.47386605  0.97207452  0.95822113    -0.62650
O306        O  0.47414634  0.97254932  0.04189886    -0.71060
O307        O  0.52049025  0.97093437  0.04159699    -0.70610
O308        O  0.52017680  0.97370267  0.95828914    -0.61860
O309        O  0.51997915  0.01415994  0.00067850    -0.74370
O310        O  0.52002094  0.93046408  0.99894273    -0.73150
Cu311      Cu  0.47229310  0.97226967  0.00012072     1.04560
Cu312      Cu  0.52180103  0.97230321  0.99991820     1.04330
C313        C  0.49679251  0.91734302  0.99948874     0.93150
C314        C  0.49674068  0.02731586  0.99964973     0.92290
C315        C  0.49703130  0.97329073  0.94508078     0.84440
C316        C  0.49742567  0.97145045  0.05488049     0.90710
O317        O  0.00053831  0.49610480  0.04112828    -0.73050
O318        O  0.99919221  0.49466800  0.95772087    -0.74030
O319        O  0.95814159  0.49606146  0.00008638    -0.62650
O320        O  0.04181154  0.49437265  0.99890755    -0.71060
O321        O  0.04104469  0.44831842  0.00047053    -0.70610
O322        O  0.95764268  0.44992907  0.00024067    -0.61860
O323        O  0.99955981  0.44847426  0.95850996    -0.74370
O324        O  0.99929596  0.45008131  0.04218972    -0.73150
Cu325      Cu  0.99997386  0.49690901  0.99942015     1.04560
Cu326      Cu  0.99934710  0.44759659  0.00039308     1.04330
C327        C  0.00005730  0.47338962  0.05497815     0.93150
C328        C  0.99934310  0.47139767  0.94493167     0.92290
C329        C  0.94463426  0.47316298  0.00043498     0.84440
C330        C  0.05473323  0.47105540  0.99944070     0.90710
C331        C  0.10029626  0.94845922  0.49120814    -0.20410
C332        C  0.08654133  0.97294542  0.49910308    -0.06980
C333        C  0.10222515  0.99653017  0.50688410     0.13890
C334        C  0.13152295  0.99500644  0.50675834    -0.20460
C335        C  0.14534294  0.97053328  0.49876135    -0.06980
C336        C  0.12958378  0.94690136  0.49110473     0.13880
C337        C  0.14355658  0.91976108  0.48386319    -0.23810
H338        H  0.08803550  0.93036994  0.48554232     0.15170
H339        H  0.14372766  0.01305792  0.51263679     0.15200
C340        C  0.08803775  0.02340664  0.51470543    -0.23760
H341        H  0.12806421  0.90312291  0.47955040     0.05410
H342        H  0.15688021  0.91277927  0.50150454     0.08640
H343        H  0.15663989  0.92240961  0.46500574     0.08640
H344        H  0.07470671  0.02011321  0.53331155     0.08620
H345        H  0.07482643  0.03078213  0.49713416     0.08620
H346        H  0.10339242  0.03999531  0.51963818     0.05390
C347        C  0.36800949  0.98459701  0.34497144    -0.20410
C348        C  0.39472131  0.97370268  0.35018816    -0.06980
C349        C  0.39930972  0.95771267  0.37452347     0.13890
C350        C  0.37768697  0.95475227  0.39388940    -0.20460
C351        C  0.35151111  0.96740998  0.38988877    -0.06980
C352        C  0.34628907  0.98176247  0.36456195     0.13880
C353        C  0.31852814  0.99519102  0.35843128    -0.23810
H354        H  0.36445555  0.99629073  0.32594322     0.15170
H355        H  0.38155122  0.94298053  0.41280674     0.15200
C356        C  0.42673885  0.94321245  0.38010779    -0.23760
H357        H  0.31890784  0.00704117  0.33853159     0.05410
H358        H  0.31294312  0.00991902  0.37529806     0.08640
H359        H  0.30223483  0.97894963  0.35640759     0.08640
H360        H  0.44349739  0.95861081  0.38386418     0.08620
H361        H  0.43235296  0.92989626  0.36210892     0.08620
H362        H  0.42565604  0.92966417  0.39886693     0.05390
C363        C  0.48475809  0.98704347  0.13122100    -0.20410
C364        C  0.49933483  0.96506835  0.14399810    -0.06980
C365        C  0.51317454  0.94518641  0.12732755     0.13890
C366        C  0.51239659  0.94802943  0.09824600    -0.20460
C367        C  0.49779650  0.96997312  0.08550976    -0.06980
C368        C  0.48393915  0.98983564  0.10212979     0.13880
C369        C  0.46919437  0.01449388  0.08930691    -0.23810
H370        H  0.47433501  0.00234076  0.14411074     0.15170
H371        H  0.52281688  0.93275697  0.08531174     0.15200
C372        C  0.52776049  0.92035509  0.13998717    -0.23760
H373        H  0.46059459  0.02863841  0.10541920     0.05410
H374        H  0.45155937  0.00733639  0.07616013     0.08640
H375        H  0.48407308  0.02658650  0.07631479     0.08640
H376        H  0.51288553  0.90844239  0.15313539     0.08620
H377        H  0.54568068  0.92722229  0.15285937     0.08620
H378        H  0.53598087  0.90609269  0.12377941     0.05390
C379        C  0.65740715  0.97883741  0.36514410    -0.20410
C380        C  0.64971978  0.96394341  0.38921424    -0.06980
C381        C  0.62282166  0.95165353  0.39039052     0.13890
C382        C  0.60335329  0.95769844  0.36950449    -0.20460
C383        C  0.61045270  0.97394107  0.34632902    -0.06980
C384        C  0.63812208  0.98367435  0.34346123     0.13880
C385        C  0.64690319  0.00030749  0.31833886    -0.23810
H386        H  0.67809631  0.98786031  0.36385421     0.15170
H387        H  0.58239441  0.94929912  0.37116639     0.15200
C388        C  0.61397569  0.93138841  0.41276233    -0.23760
H389        H  0.66903727  0.00703662  0.31984705     0.05410
H390        H  0.63364456  0.01918842  0.31634051     0.08640
H391        H  0.64470663  0.98745431  0.29931334     0.08640
H392        H  0.59761689  0.94100344  0.42599259     0.08620
H393        H  0.63156557  0.92424395  0.42596430     0.08620
H394        H  0.60522025  0.91240601  0.40292175     0.05390
C395        C  0.86955291  0.95598036  0.51720610    -0.20410
C396        C  0.85558133  0.97396019  0.49874901    -0.06980
C397        C  0.87135343  0.99177167  0.48131119     0.13890
C398        C  0.90064350  0.99069181  0.48240793    -0.20460
C399        C  0.91462278  0.97268087  0.50081255    -0.06980
C400        C  0.89886662  0.95499127  0.51838527     0.13880
C401        C  0.91275567  0.93430051  0.53761282    -0.23810
H402        H  0.85741388  0.94234407  0.53053174     0.15170
H403        H  0.91276143  0.00433608  0.46907142     0.15200
C404        C  0.85757390  0.01284184  0.46242877    -0.23760
H405        H  0.89723250  0.92106192  0.54857607     0.05410
H406        H  0.92508903  0.94537739  0.55369075     0.08640
H407        H  0.92671247  0.92041198  0.52547945     0.08640
H408        H  0.84341077  0.02636269  0.47472190     0.08620
H409        H  0.84556635  0.00218602  0.44588060     0.08620
H410        H  0.87315605  0.02643979  0.45199699     0.05390
C411        C  0.60686513  0.99407159  0.63101804    -0.20410
C412        C  0.61089036  0.97555414  0.65325366    -0.06980
C413        C  0.63641118  0.96089759  0.65550097     0.13890
C414        C  0.65625058  0.96329716  0.63397993    -0.20460
C415        C  0.65104050  0.98007843  0.61051571    -0.06980
C416        C  0.62670266  0.99684838  0.60982758     0.13880
C417        C  0.62163640  0.01822157  0.58725060    -0.23810
H418        H  0.58763155  0.00596737  0.62986802     0.15170
H419        H  0.67518524  0.95093011  0.63476868     0.15200
C420        C  0.64211859  0.94166392  0.67966669    -0.23760
H421        H  0.60328199  0.03153622  0.59201613     0.05410
H422        H  0.61733263  0.00810464  0.56704970     0.08640
H423        H  0.64011330  0.03203052  0.58530278     0.08640
H424        H  0.62570646  0.92539407  0.68081267     0.08620
H425        H  0.64234127  0.95370012  0.69933743     0.08620
H426        H  0.66267809  0.93113839  0.67762903     0.05390
C427        C  0.34409175  0.96117133  0.63328757    -0.20410
C428        C  0.34782911  0.98123934  0.61227768    -0.06980
C429        C  0.37063193  0.99985667  0.61398610     0.13890
C430        C  0.39066164  0.99605278  0.63491558    -0.20460
C431        C  0.38820646  0.97454778  0.65451122    -0.06980
C432        C  0.36412127  0.95761596  0.65450471     0.13880
C433        C  0.36034768  0.93489203  0.67583191    -0.23810
H434        H  0.32636240  0.94720659  0.63216116     0.15170
H435        H  0.40885746  0.00946107  0.63553000     0.15200
C436        C  0.37383196  0.02401622  0.59408244    -0.23760
H437        H  0.34063403  0.92320690  0.67245268     0.05410
H438        H  0.35963026  0.94408350  0.69698947     0.08640
H439        H  0.37801062  0.91994787  0.67464593     0.08640
H440        H  0.35454438  0.03686753  0.59423898     0.08620
H441        H  0.37789970  0.01658682  0.57267934     0.08620
H442        H  0.39158266  0.03764211  0.60002101     0.05390
C443        C  0.48247457  0.96025431  0.86841847    -0.20410
C444        C  0.49968039  0.98029858  0.85586169    -0.06980
C445        C  0.51568018  0.99828429  0.87279679     0.13890
C446        C  0.51440356  0.99533570  0.90186229    -0.20460
C447        C  0.49730444  0.97516328  0.91438520    -0.06980
C448        C  0.48121122  0.95732609  0.89744013     0.13880
C449        C  0.46388674  0.93423071  0.90969656    -0.23810
H450        H  0.47038070  0.94636591  0.85537757     0.15170
H451        H  0.52653459  0.00914600  0.91496054     0.15200
C452        C  0.53314639  0.02134635  0.86053893    -0.23760
H453        H  0.45359227  0.92156082  0.89333356     0.05410
H454        H  0.44726172  0.94291109  0.92319290     0.08640
H455        H  0.47765246  0.92023353  0.92199107     0.08640
H456        H  0.51997282  0.03482138  0.84702568     0.08620
H457        H  0.55056883  0.01256894  0.84821528     0.08620
H458        H  0.54247605  0.03464943  0.87697375     0.05390
C459        C  0.01962678  0.07272697  0.51618059    -0.20410
C460        C  0.00000324  0.05865630  0.49974340    -0.06980
C461        C  0.98050255  0.07409583  0.48383923     0.13890
C462        C  0.98124304  0.10329718  0.48469347    -0.20460
C463        C  0.00079640  0.11740903  0.50121918    -0.06980
C464        C  0.02049188  0.10193485  0.51691099     0.13880
C465        C  0.04324391  0.11596401  0.53341400    -0.23810
H466        H  0.03466604  0.06075844  0.52815589     0.15170
H467        H  0.96618854  0.11522549  0.47269640     0.15200
C468        C  0.95821339  0.05991311  0.46683452    -0.23760
H469        H  0.05800091  0.10060005  0.54260090     0.05410
H470        H  0.03413053  0.12800967  0.55080524     0.08640
H471        H  0.05536912  0.13007865  0.51964021     0.08640
H472        H  0.94558305  0.04610301  0.48046406     0.08620
H473        H  0.96791119  0.04742100  0.45003385     0.08620
H474        H  0.94386417  0.07518107  0.45688151     0.05390
C475        C  0.02452739  0.34954434  0.35480017    -0.20410
C476        C  0.99868365  0.35974060  0.34555502    -0.06980
C477        C  0.97375727  0.34775401  0.35565832     0.13890
C478        C  0.97521260  0.32688758  0.37614609    -0.20460
C479        C  0.00101320  0.31811774  0.38682859    -0.06980
C480        C  0.02596529  0.32896339  0.37559412     0.13880
C481        C  0.05400602  0.31952501  0.38630204    -0.23810
H482        H  0.04356938  0.35885860  0.34692101     0.15170
H483        H  0.95615329  0.31842858  0.38490111     0.15200
C484        C  0.94567485  0.35742492  0.34524410    -0.23760
H485        H  0.07141979  0.32999171  0.37517637     0.05410
H486        H  0.05619700  0.29671356  0.38332426     0.08640
H487        H  0.05590570  0.32438691  0.40880682     0.08640
H488        H  0.94446309  0.35455065  0.32234238     0.08620
H489        H  0.94262519  0.37977016  0.35020013     0.08620
H490        H  0.92834593  0.34551014  0.35495499     0.05390
C491        C  0.01020478  0.49474933  0.13100806    -0.20410
C492        C  0.00023600  0.47110177  0.14507527    -0.06980
C493        C  0.98949979  0.44862992  0.12930822     0.13890
C494        C  0.98976956  0.45024430  0.10011662    -0.20460
C495        C  0.00007432  0.47374625  0.08598984    -0.06980
C496        C  0.01022255  0.49649977  0.10181427     0.13880
C497        C  0.02163893  0.52256081  0.08842642    -0.23810
H498        H  0.01830655  0.51202733  0.14300524     0.15170
H499        H  0.98154982  0.43296139  0.08820209     0.15200
C500        C  0.97658825  0.42330659  0.14271713    -0.23760
H501        H  0.02976153  0.53745721  0.10410819     0.05410
H502        H  0.00486863  0.53341954  0.07666273     0.08640
H503        H  0.03913210  0.51717826  0.07426863     0.08640
H504        H  0.96074936  0.42969693  0.15830789     0.08620
H505        H  0.99294356  0.41031164  0.15261529     0.08620
H506        H  0.96592284  0.40992191  0.12717855     0.05390
C507        C  0.98528438  0.62771616  0.36775702    -0.20410
C508        C  0.00529629  0.62457362  0.38894096    -0.06980
C509        C  0.02479471  0.60251631  0.38740611     0.13890
C510        C  0.02199653  0.58257744  0.36638532    -0.20460
C511        C  0.00051813  0.58431068  0.34658858    -0.06980
C512        C  0.98263898  0.60774949  0.34650691     0.13880
C513        C  0.95976901  0.61088005  0.32517759    -0.23810
H514        H  0.97066147  0.64492694  0.36876508     0.15170
H515        H  0.03614091  0.56493757  0.36592400     0.15200
C516        C  0.04877743  0.60000007  0.40766853    -0.23760
H517        H  0.94710646  0.62991519  0.32879315     0.05410
H518        H  0.94560347  0.59261645  0.32608739     0.08640
H519        H  0.96900224  0.61249029  0.30406237     0.08640
H520        H  0.04104010  0.59574579  0.42897310     0.08620
H521        H  0.06106077  0.61959326  0.40762277     0.08620
H522        H  0.06308631  0.58270348  0.40202163     0.05390
C523        C  0.01718543  0.84197263  0.51628222    -0.20410
C524        C  0.99878691  0.82849425  0.49797929    -0.06980
C525        C  0.98095498  0.84462393  0.48080833     0.13890
C526        C  0.98241444  0.87377389  0.48202553    -0.20460
C527        C  0.00083843  0.88725498  0.50026434    -0.06980
C528        C  0.01853891  0.87115396  0.51759368     0.13880
C529        C  0.03953692  0.88452125  0.53676137    -0.23810
H530        H  0.03079163  0.82954939  0.52944422     0.15170
H531        H  0.96868620  0.88618574  0.46897333     0.15200
C532        C  0.95942293  0.83140572  0.46214105    -0.23760
H533        H  0.05272741  0.86875676  0.54750807     0.05410
H534        H  0.02863740  0.89674109  0.55302397     0.08640
H535        H  0.05353505  0.89841870  0.52462576     0.08640
H536        H  0.94588936  0.81726796  0.47450736     0.08620
H537        H  0.96975889  0.81958781  0.44528555     0.08620
H538        H  0.94578690  0.84724337  0.45207828     0.05390
C539        C  0.98169230  0.60536710  0.65439737    -0.20410
C540        C  0.00327385  0.58558111  0.65370220    -0.06980
C541        C  0.02500261  0.58850328  0.63405010     0.13890
C542        C  0.02322506  0.60952947  0.61386052    -0.20460
C543        C  0.00047092  0.62788960  0.61302878    -0.06980
C544        C  0.97998622  0.62655537  0.63413558     0.13880
C545        C  0.95547596  0.64621503  0.63426272    -0.23810
H546        H  0.96523987  0.60318638  0.66973042     0.15170
H547        H  0.03917558  0.61101151  0.59791828     0.15200
C548        C  0.05011181  0.56951789  0.63428152    -0.23760
H549        H  0.94100069  0.64172330  0.65176034     0.05410
H550        H  0.94360861  0.64428871  0.61448513     0.08640
H551        H  0.96297573  0.66793548  0.63655528     0.08640
H552        H  0.04386928  0.54783001  0.62959966     0.08620
H553        H  0.06030556  0.57022036  0.65504773     0.08620
H554        H  0.06578635  0.57586461  0.61846232     0.05390
C555        C  0.98250110  0.34117728  0.65346044    -0.20410
C556        C  0.00362656  0.36140499  0.65314107    -0.06980
C557        C  0.02566619  0.35914375  0.63374883     0.13890
C558        C  0.02466399  0.33827257  0.61349167    -0.20460
C559        C  0.00240303  0.31938617  0.61230912    -0.06980
C560        C  0.98158131  0.32011913  0.63315064     0.13880
C561        C  0.95751505  0.29996816  0.63300614    -0.23810
H562        H  0.96581669  0.34285072  0.66859809     0.15170
H563        H  0.04091400  0.33725140  0.59782312     0.15200
C564        C  0.05036066  0.37860353  0.63437319    -0.23760
H565        H  0.94257047  0.30425259  0.65013791     0.05410
H566        H  0.96541684  0.27842051  0.63579050     0.08640
H567        H  0.94601222  0.30155767  0.61297208     0.08640
H568        H  0.06023410  0.37796391  0.65529986     0.08620
H569        H  0.04375208  0.40019684  0.62954838     0.08620
H570        H  0.06642724  0.37265640  0.61882048     0.05390
C571        C  0.01501069  0.45565438  0.86895185    -0.20410
C572        C  0.99559263  0.47296311  0.85544597    -0.06980
C573        C  0.97714060  0.48935405  0.87154318     0.13890
C574        C  0.97903527  0.48841276  0.90069631    -0.20460
C575        C  0.99855032  0.47123875  0.91417942    -0.06980
C576        C  0.01686554  0.45472410  0.89811872     0.13880
C577        C  0.03926767  0.43719748  0.91152912    -0.23810
H578        H  0.02917753  0.44318485  0.85656534     0.15170
H579        H  0.96488509  0.50087568  0.91311565     0.15200
C580        C  0.95457598  0.50688665  0.85831212    -0.23760
H581        H  0.05251937  0.42662082  0.89581102     0.05410
H582        H  0.02973755  0.42086916  0.92484562     0.08640
H583        H  0.05295974  0.45073666  0.92430261     0.08640
H584        H  0.94153162  0.49381660  0.84440599     0.08620
H585        H  0.96391863  0.52420211  0.84624681     0.08620
H586        H  0.94062480  0.51630873  0.87416605     0.05390
C587        C  0.09990165  0.49432521  0.00867666    -0.20410
C588        C  0.08572344  0.47074330  0.99887391    -0.06980
C589        C  0.10143663  0.44809458  0.98832316     0.13890
C590        C  0.13056405  0.45041672  0.98655117    -0.20460
C591        C  0.14474873  0.47422229  0.99585770    -0.06980
C592        C  0.12911089  0.49626851  0.00776331     0.13880
C593        C  0.14260149  0.52147726  0.02066040    -0.23810
H594        H  0.08800446  0.51139466  0.01743056     0.15170
H595        H  0.14238760  0.43334937  0.97773657     0.15200
C596        C  0.08801433  0.42141771  0.97865130    -0.23760
H597        H  0.12735531  0.53396904  0.03277814     0.05410
H598        H  0.15085720  0.53538522  0.00420206     0.08640
H599        H  0.15945316  0.51501337  0.03522009     0.08640
H600        H  0.07260293  0.42584679  0.96200851     0.08620
H601        H  0.07754131  0.41094440  0.99642316     0.08620
H602        H  0.10357364  0.40655472  0.97012946     0.05390
C603        C  0.36674790  0.31782041  0.01329102    -0.20410
C604        C  0.39307483  0.32412426  0.00213937    -0.06980
C605        C  0.39706012  0.34981062  0.98821631     0.13890
C606        C  0.37545391  0.36946016  0.98810410    -0.20460
C607        C  0.34982952  0.36412746  0.00119575    -0.06980
C608        C  0.34498372  0.33754097  0.01301271     0.13880
C609        C  0.31761648  0.33027172  0.02660146    -0.23810
H610        H  0.36360319  0.29783058  0.02335021     0.15170
H611        H  0.37884510  0.38952040  0.97825656     0.15200
C612        C  0.42368633  0.35653423  0.97283039    -0.23760
H613        H  0.31816642  0.30919942  0.03619088     0.05410
H614        H  0.30071211  0.33030507  0.01081033     0.08640
H615        H  0.31274626  0.34551019  0.04323467     0.08640
H616        H  0.42854603  0.33965161  0.95786015     0.08620
H617        H  0.44127869  0.35913024  0.98754799     0.08620
H618        H  0.42186056  0.37628042  0.96084858     0.05390
C619        C  0.52105013  0.07255338  0.00584008    -0.20410
C620        C  0.49665135  0.05830654  0.99813882    -0.06980
C621        C  0.47343006  0.07394995  0.98837043     0.13890
C622        C  0.47561167  0.10299893  0.98616515    -0.20460
C623        C  0.50005705  0.11726275  0.99369308    -0.06980
C624        C  0.52311101  0.10166357  0.00394928     0.13880
C625        C  0.54977915  0.11504306  0.01384227    -0.23810
H626        H  0.53879418  0.06079226  0.01355265     0.15170
H627        H  0.45792640  0.11470386  0.97826710     0.15200
C628        C  0.44629241  0.06054647  0.97972162    -0.23760
H629        H  0.56352309  0.09990226  0.02479836     0.05410
H630        H  0.54510444  0.13205791  0.02871595     0.08640
H631        H  0.56183323  0.12290586  0.99579956     0.08640
H632        H  0.43656602  0.04996984  0.99785784     0.08620
H633        H  0.45011289  0.04537243  0.96275516     0.08620
H634        H  0.43095846  0.07606720  0.97184431     0.05390
C635        C  0.63357191  0.31595476  0.01382867    -0.20410
C636        C  0.60843924  0.31911857  0.99924290    -0.06980
C637        C  0.60493524  0.34177988  0.98087142     0.13890
C638        C  0.62615461  0.36163668  0.97863362    -0.20460
C639        C  0.65066020  0.35986717  0.99472988    -0.06980
C640        C  0.65482239  0.33609190  0.01192789     0.13880
C641        C  0.68072330  0.33213291  0.02930700    -0.23810
H642        H  0.63608487  0.29820082  0.02761577     0.15170
H643        H  0.62311934  0.37922747  0.96476555     0.15200
C644        C  0.57872219  0.34521914  0.96373620    -0.23760
H645        H  0.67916039  0.31350577  0.04299049     0.05410
H646        H  0.68407048  0.35049234  0.04287609     0.08640
H647        H  0.69898645  0.32884857  0.01555029     0.08640
H648        H  0.56042021  0.34819242  0.97754063     0.08620
H649        H  0.57545436  0.32645357  0.95070257     0.08620
H650        H  0.57993759  0.36359096  0.94968145     0.05390
C651        C  0.86862153  0.49144909  0.01496834    -0.20410
C652        C  0.85474772  0.46952252  0.00150041    -0.06980
C653        C  0.87068182  0.44929372  0.98710881     0.13890
C654        C  0.89988544  0.45131565  0.98716595    -0.20460
C655        C  0.91372689  0.47313157  0.00075369    -0.06980
C656        C  0.89783848  0.49361620  0.01474611     0.13880
C657        C  0.91135740  0.51738852  0.03013023    -0.23810
H658        H  0.85648108  0.50699277  0.02592369     0.15170
H659        H  0.91206468  0.43580486  0.97618858     0.15200
C660        C  0.85742795  0.42615203  0.97059492    -0.23760
H661        H  0.89571483  0.53043807  0.04110280     0.05410
H662        H  0.92257645  0.53110604  0.01526107     0.08640
H663        H  0.92619057  0.50915141  0.04594211     0.08640
H664        H  0.84142693  0.43474094  0.95617383     0.08620
H665        H  0.84799428  0.41061212  0.98480472     0.08620
H666        H  0.87304492  0.41483532  0.95781429     0.05390
C667        C  0.65558316  0.60622119  0.98638999    -0.20410
C668        C  0.65368090  0.58372860  0.00499791    -0.06980
C669        C  0.63353392  0.58429166  0.02642237     0.13890
C670        C  0.61409221  0.60601953  0.02708404    -0.20460
C671        C  0.61416318  0.62720872  0.00690162    -0.06980
C672        C  0.63594923  0.62805864  0.98701380     0.13880
C673        C  0.63769841  0.65080865  0.96544369    -0.23810
H674        H  0.67147242  0.60586868  0.97033663     0.15170
H675        H  0.59788144  0.60582022  0.04282641     0.15200
C676        C  0.63238873  0.56207719  0.04868433    -0.23760
H677        H  0.65522039  0.64730575  0.95072729     0.05410
H678        H  0.64135416  0.67108913  0.97577719     0.08640
H679        H  0.61804666  0.65169895  0.95317932     0.08640
H680        H  0.65301454  0.56040244  0.05915044     0.08620
H681        H  0.62673293  0.54169958  0.03956359     0.08620
H682        H  0.61653261  0.56695141  0.06481539     0.05390
C683        C  0.37166187  0.57736833  0.98173343    -0.20410
C684        C  0.34795906  0.58297564  0.99778869    -0.06980
C685        C  0.34455915  0.60956118  0.00976447     0.13890
C686        C  0.36622390  0.62918397  0.00722692    -0.20460
C687        C  0.39086752  0.62276461  0.99271543    -0.06980
C688        C  0.39273901  0.59714968  0.97831090     0.13880
C689        C  0.41627207  0.59001757  0.95873355    -0.23810
H690        H  0.37377605  0.55725074  0.97174254     0.15170
H691        H  0.36455844  0.64896295  0.01789342     0.15200
C692        C  0.31896524  0.61666654  0.02647919    -0.23760
H693        H  0.40748065  0.58345912  0.93837524     0.05410
H694        H  0.42875956  0.57257436  0.96751621     0.08640
H695        H  0.43017978  0.60789466  0.95434095     0.08640
H696        H  0.31676191  0.60184135  0.04412680     0.08620
H697        H  0.30015181  0.61547806  0.01302779     0.08620
H698        H  0.32011329  0.63806508  0.03509907     0.05390
C699        C  0.47879598  0.84110601  0.98663836    -0.20410
C700        C  0.49915846  0.82771542  0.00288440    -0.06980
C701        C  0.51814474  0.84399524  0.01850057     0.13890
C702        C  0.51686470  0.87312522  0.01649101    -0.20460
C703        C  0.49682903  0.88653715  0.99980232    -0.06980
C704        C  0.47736682  0.87019534  0.98470859     0.13880
C705        C  0.45534825  0.88209029  0.96556228    -0.23810
H706        H  0.46414769  0.82870566  0.97472110     0.15170
H707        H  0.53134841  0.88560597  0.02851782     0.15200
C708        C  0.53883846  0.83112393  0.03845147    -0.23760
H709        H  0.45808272  0.87331463  0.94437152     0.05410
H710        H  0.43432503  0.87624039  0.97334156     0.08640
H711        H  0.45606312  0.90492071  0.96341987     0.08640
H712        H  0.55532872  0.81988402  0.02692148     0.08620
H713        H  0.52794494  0.81666191  0.05287606     0.08620
H714        H  0.54947514  0.84714965  0.05126704     0.05390
loop_ 
_geom_bond_atom_site_label_1 
_geom_bond_atom_site_label_2 
_geom_bond_distance 
_geom_bond_site_symmetry_2 
_ccdc_geom_bond_type 
N1            N2   1.319       .  A
N1            C5   1.349       .  A
N1           Cu9   2.073   1_554  S
N2            C3   1.338       .  A
N2           Cu8   2.055       .  S
C3            C4   1.382       .  A
C3            H6   1.082       .  S
C4            C5   1.389       .  A
C4          C671   1.481       .  S
C5            H7   1.081   1_554  S
Cu8          N11   2.055       .  S
Cu9          N19   2.075   1_556  S
Cu10         N12   2.078   1_554  S
Cu10         N18   2.081       .  S
N11          N12   1.320   1_554  A
N11          C15   1.339       .  A
N12          C13   1.349       .  A
C13          C14   1.388       .  A
C13          H16   1.082       .  S
C14          C15   1.381   1_556  A
C14         C687   1.480       .  S
C15          H17   1.082       .  S
N18          N19   1.324       .  A
N18          C22   1.345       .  A
N19          C20   1.343       .  A
C20          C21   1.383       .  A
C20          H23   1.079   1_554  S
C21          C22   1.385       .  A
C21         C700   1.482       .  S
C22          H24   1.082       .  S
N25          N26   1.321       .  A
N25          C29   1.349   1_556  A
N25         Cu33   2.073       .  S
N26          C27   1.340       .  A
N26         Cu32   2.061       .  S
C27          C28   1.380   1_556  A
C27          H30   1.082       .  S
C28          C29   1.384       .  A
C28         C668   1.474       .  S
C29          H31   1.082       .  S
Cu32         N35   2.061       .  S
Cu33         N43   2.075   1_556  S
Cu34         N36   2.071   1_554  S
Cu34         N42   2.072       .  S
N35          N36   1.318       .  A
N35          C39   1.339       .  A
N36          C37   1.347       .  A
C37          C38   1.391       .  A
C37          H40   1.079   1_556  S
C38          C39   1.386       .  A
C38         C639   1.489       .  S
C39          H41   1.082       .  S
N42          N43   1.323       .  A
N42          C46   1.343       .  A
N43          C44   1.343   1_554  A
C44          C45   1.385   1_556  A
C44          H47   1.082       .  S
C45          C46   1.385       .  A
C45         C652   1.484       .  S
C46          H48   1.079       .  S
N49          N50   1.321       .  A
N49          C53   1.348       .  A
N49         Cu57   2.077   1_554  S
N50          C51   1.340       .  A
N50         Cu56   2.061       .  S
C51          C52   1.381       .  A
C51          H54   1.081       .  S
C52          C53   1.386       .  A
C52         C604   1.479       .  S
C53          H55   1.082   1_554  S
Cu56         N59   2.061       .  S
Cu57         N67   2.079       .  S
Cu58         N60   2.069   1_556  S
Cu58         N66   2.069       .  S
N59          N60   1.321       .  A
N59          C63   1.341       .  A
N60          C61   1.347   1_554  A
C61          C62   1.382   1_556  A
C61          H64   1.082       .  S
C62          C63   1.380       .  A
C62         C636   1.470   1_554  S
C63          H65   1.082       .  S
N66          N67   1.321       .  A
N66          C70   1.343       .  A
N67          C68   1.344       .  A
C68          C69   1.390       .  A
C68          H71   1.082   1_556  S
C69          C70   1.387       .  A
C69         C623   1.492       .  S
C70          H72   1.077       .  S
N73          N74   1.320   1_556  A
N73          C77   1.348       .  A
N73         Cu81   2.069       .  S
N74          C75   1.339       .  A
N74         Cu80   2.061       .  S
C75          C76   1.381       .  A
C75          H78   1.082       .  S
C76          C77   1.385   1_554  A
C76         C684   1.474   1_554  S
C77          H79   1.082       .  S
Cu80         N83   2.061       .  S
Cu81         N91   2.070       .  S
Cu82         N84   2.073   1_556  S
Cu82         N90   2.075       .  S
N83          N84   1.320       .  A
N83          C87   1.339       .  A
N84          C85   1.348   1_554  A
C85          C86   1.389   1_556  A
C85          H88   1.081       .  S
C86          C87   1.383       .  A
C86         C607   1.482       .  S
C87          H89   1.082       .  S
N90          N91   1.322       .  A
N90          C94   1.343       .  A
N91          C92   1.342       .  A
C92          C93   1.386       .  A
C92          H95   1.077       .  S
C93          C94   1.387       .  A
C93         C591   1.487       .  S
C94          H96   1.082   1_556  S
N97          N98   1.320       .  A
N97         C101   1.349       .  A
N97        Cu105   2.076       .  S
N98          C99   1.340       .  A
N98        Cu104   2.062       .  S
C99         C100   1.380   1_655  A
C99         H102   1.082       .  S
C100        C101   1.386   1_455  A
C100        C540   1.476       .  S
C101        H103   1.082   1_655  S
Cu104       N107   2.062       .  S
Cu105       N115   2.078       .  S
Cu106       N108   2.081       .  S
Cu106       N114   2.083       .  S
N107        N108   1.321       .  A
N107        C111   1.340       .  A
N108        C109   1.350       .  A
C109        C110   1.386   1_655  A
C109        H112   1.082       .  S
C110        C111   1.380   1_455  A
C110        C556   1.477       .  S
C111        H113   1.082       .  S
N114        N115   1.325       .  A
N114        C118   1.346       .  A
N115        C116   1.344       .  A
C116        C117   1.383       .  A
C116        H119   1.081       .  S
C117        C118   1.384       .  A
C117        C572   1.480       .  S
C118        H120   1.082       .  S
N121        N122   1.321       .  A
N121        C125   1.350       .  A
N121       Cu129   2.079       .  S
N122        C123   1.340       .  A
N122       Cu128   2.061       .  S
C123        C124   1.380       .  A
C123        H126   1.082       .  S
C124        C125   1.386       .  A
C124        C543   1.476   1_655  S
C125        H127   1.082       .  S
Cu128       N131   2.061       .  S
Cu129       N139   2.081       .  S
Cu130       N132   2.081       .  S
Cu130       N138   2.083   1_455  S
N131        N132   1.321   1_655  A
N131        C135   1.340   1_655  A
N132        C133   1.350       .  A
C133        C134   1.387       .  A
C133        H136   1.082       .  S
C134        C135   1.381       .  A
C134        C508   1.479       .  S
C135        H137   1.082   1_455  S
N138        N139   1.325       .  A
N138        C142   1.345       .  A
N139        C140   1.345       .  A
C140        C141   1.383       .  A
C140        H143   1.082       .  S
C141        C142   1.384       .  A
C141        C524   1.481       .  S
C142        H144   1.081   1_655  S
N145        N146   1.321       .  A
N145        C149   1.350       .  A
N145       Cu153   2.080       .  S
N146        C147   1.341       .  A
N146       Cu152   2.066       .  S
C147        C148   1.381       .  A
C147        H150   1.082       .  S
C148        C149   1.387       .  A
C148        C511   1.479   1_655  S
C149        H151   1.081       .  S
Cu152       N155   2.066       .  S
Cu153       N163   2.082       .  S
Cu154       N156   2.073       .  S
Cu154       N162   2.075       .  S
N155        N156   1.321   1_655  A
N155        C159   1.342       .  A
N156        C157   1.348       .  A
C157        C158   1.383   1_455  A
C157        H160   1.082       .  S
C158        C159   1.380       .  A
C158        C476   1.472       .  S
C159        H161   1.082       .  S
N162        N163   1.323   1_455  A
N162        C166   1.343       .  A
N163        C164   1.345       .  A
C164        C165   1.387   1_655  A
C164        H167   1.082       .  S
C165        C166   1.386       .  A
C165        C492   1.487       .  S
C166        H168   1.078       .  S
N169        N170   1.321       .  A
N169        C173   1.349       .  A
N169       Cu177   2.078       .  S
N170        C171   1.341   1_655  A
N170       Cu176   2.066   1_655  S
C171        C172   1.381   1_455  A
C171        H174   1.082       .  S
C172        C173   1.387       .  A
C172        C559   1.479   1_655  S
C173        H175   1.081       .  S
Cu176       N179   2.066       .  S
Cu177       N187   2.079       .  S
Cu178       N180   2.078       .  S
Cu178       N186   2.080       .  S
N179        N180   1.322   1_455  A
N179        C183   1.342       .  A
N180        C181   1.349       .  A
C181        C182   1.383   1_655  A
C181        H184   1.082       .  S
C182        C183   1.379       .  A
C182        C479   1.471       .  S
C183        H185   1.082       .  S
N186        N187   1.324       .  A
N186        C190   1.345       .  A
N187        C188   1.345       .  A
C188        C189   1.383   1_655  A
C188        H191   1.081       .  S
C189        C190   1.383   1_455  A
C189        C463   1.479       .  S
C190        H192   1.082       .  S
N193        N194   1.321       .  A
N193        C197   1.349       .  A
N193       Cu201   2.073       .  S
N194        C195   1.341       .  A
N194       Cu200   2.067       .  S
C195        C196   1.381       .  A
C195        H198   1.082       .  S
C196        C197   1.385       .  A
C196        C431   1.476       .  S
C197        H199   1.082       .  S
Cu200       N203   2.067       .  S
Cu201       N211   2.075       .  S
Cu202       N204   2.076       .  S
Cu202       N210   2.078       .  S
N203        N204   1.321       .  A
N203        C207   1.341       .  A
N204        C205   1.349       .  A
C205        C206   1.386       .  A
C205        H208   1.081       .  S
C206        C207   1.382       .  A
C206        C412   1.479       .  S
C207        H209   1.082       .  S
N210        N211   1.324       .  A
N210        C214   1.345       .  A
N211        C212   1.343       .  A
C212        C213   1.382       .  A
C212        H215   1.082       .  S
C213        C214   1.384       .  A
C213        C444   1.478       .  S
C214        H216   1.081       .  S
N217        N218   1.319       .  A
N217        C221   1.352       .  A
N217       Cu225   2.087       .  S
N218        C219   1.337       .  A
N218       Cu224   2.048       .  S
C219        C220   1.379       .  A
C219        H222   1.081       .  S
C220        C221   1.391       .  A
C220        C415   1.481       .  S
C221        H223   1.082       .  S
Cu224       N227   2.048       .  S
Cu225       N235   2.090       .  S
Cu226       N228   2.086       .  S
Cu226       N234   2.090       .  S
N227        N228   1.318       .  A
N227        C231   1.338       .  A
N228        C229   1.351       .  A
C229        C230   1.393       .  A
C229        H232   1.082       .  S
C230        C231   1.382       .  A
C230        C380   1.486       .  S
C231        H233   1.082       .  S
N234        N235   1.327       .  A
N234        C238   1.346       .  A
N235        C236   1.346       .  A
C236        C237   1.383       .  A
C236        H239   1.082       .  S
C237        C238   1.384       .  A
C237        C396   1.482       .  S
C238        H240   1.081       .  S
N241        N242   1.321       .  A
N241        C245   1.349       .  A
N241       Cu249   2.076       .  S
N242        C243   1.341       .  A
N242       Cu248   2.067       .  S
C243        C244   1.382       .  A
C243        H246   1.082       .  S
C244        C245   1.386       .  A
C244        C383   1.478       .  S
C245        H247   1.082       .  S
Cu248       N251   2.067       .  S
Cu249       N259   2.077       .  S
Cu250       N252   2.077       .  S
Cu250       N258   2.078       .  S
N251        N252   1.321       .  A
N251        C255   1.341       .  A
N252        C253   1.348       .  A
C253        C254   1.386       .  A
C253        H256   1.082       .  S
C254        C255   1.382       .  A
C254        C348   1.480       .  S
C255        H257   1.081       .  S
N258        N259   1.324       .  A
N258        C262   1.345       .  A
N259        C260   1.344       .  A
C260        C261   1.382       .  A
C260        H263   1.082       .  S
C261        C262   1.382       .  A
C261        C364   1.477       .  S
C262        H264   1.082       .  S
N265        N266   1.319       .  A
N265        C269   1.351       .  A
N265       Cu273   2.087       .  S
N266        C267   1.338       .  A
N266       Cu272   2.054       .  S
C267        C268   1.383       .  A
C267        H270   1.082       .  S
C268        C269   1.394       .  A
C268        C351   1.489       .  S
C269        H271   1.080       .  S
Cu272       N275   2.053       .  S
Cu273       N283   2.089       .  S
Cu274       N276   2.082       .  S
Cu274       N282   2.085       .  S
N275        N276   1.320       .  A
N275        C279   1.338       .  A
N276        C277   1.351       .  A
C277        C278   1.389       .  A
C277        H280   1.082       .  S
C278        C279   1.380       .  A
C278        C428   1.478       .  S
C279        H281   1.082       .  S
N282        N283   1.327       .  A
N282        C286   1.346       .  A
N283        C284   1.346       .  A
C284        C285   1.382       .  A
C284        H287   1.082       .  S
C285        C286   1.381       .  A
C285        C335   1.477       .  S
C286        H288   1.082       .  S
O289       Cu297   2.009       .  S
O289        C299   1.277       .  A
O290       Cu297   2.009   1_545  S
O290        C300   1.278       .  A
O291       Cu297   2.015   1_655  S
O291        C301   1.278       .  A
O292       Cu297   2.007       .  S
O292        C302   1.277       .  A
O293       Cu298   2.013       .  S
O293        C302   1.277       .  A
O294       Cu298   2.006   1_655  S
O294        C301   1.277       .  A
O295       Cu298   2.007   1_545  S
O295        C300   1.277       .  A
O296       Cu298   2.006       .  S
O296        C299   1.278       .  A
Cu297      Cu298   2.375       .  S
C299        C527   1.479       .  S
C300        C460   1.476       .  S
C301        C399   1.481       .  S
C302        C332   1.471       .  S
O303       Cu311   2.000       .  S
O303        C313   1.276   1_554  A
O304       Cu311   1.998   1_546  S
O304        C314   1.275       .  A
O305       Cu311   2.014   1_556  S
O305        C315   1.278       .  A
O306       Cu311   2.008       .  S
O306        C316   1.277       .  A
O307       Cu312   2.004   1_554  S
O307        C316   1.276       .  A
O308       Cu312   2.002       .  S
O308        C315   1.276       .  A
O309       Cu312   2.013   1_544  S
O309        C314   1.280   1_554  A
O310       Cu312   2.012       .  S
O310        C313   1.279       .  A
Cu311      Cu312   2.371   1_554  S
C313        C703   1.480       .  S
C314        C620   1.490       .  S
C315        C447   1.477       .  S
C316        C367   1.473       .  S
O317       Cu325   2.003   1_454  S
O317        C327   1.276       .  A
O318       Cu325   2.006       .  S
O318        C328   1.277       .  A
O319       Cu325   2.004   1_554  S
O319        C329   1.277       .  A
O320       Cu325   2.007   1_455  S
O320        C330   1.279       .  A
O321       Cu326   1.997   1_455  S
O321        C330   1.275   1_554  A
O322       Cu326   2.000       .  S
O322        C329   1.277       .  A
O323       Cu326   2.012   1_556  S
O323        C328   1.278       .  A
O324       Cu326   2.011       .  S
O324        C327   1.279   1_655  A
Cu325      Cu326   2.369   1_556  S
C327        C495   1.489       .  S
C328        C575   1.477       .  S
C329        C655   1.480       .  S
C330        C588   1.484       .  S
C331        C332   1.401       .  A
C331        C336   1.404       .  A
C331        H338   1.084       .  S
C332        C333   1.411       .  A
C333        C334   1.405       .  A
C333        C340   1.507   1_565  S
C334        C335   1.403       .  A
C334        H339   1.084   1_565  S
C335        C336   1.413       .  A
C336        C337   1.507       .  S
C337        H341   1.111       .  S
C337        H342   1.111       .  S
C337        H343   1.109       .  S
C340        H344   1.110       .  S
C340        H345   1.111       .  S
C340        H346   1.111       .  S
C347        C348   1.403       .  A
C347        C352   1.410       .  A
C347        H354   1.084       .  S
C348        C349   1.413       .  A
C349        C350   1.400       .  A
C349        C356   1.509       .  S
C350        C351   1.405       .  A
C350        H355   1.084       .  S
C351        C352   1.418       .  A
C352        C353   1.505       .  S
C353        H357   1.111   1_565  S
C353        H358   1.110   1_565  S
C353        H359   1.108       .  S
C356        H360   1.107       .  S
C356        H361   1.110       .  S
C356        H362   1.111       .  S
C363        C364   1.404       .  A
C363        C368   1.404       .  A
C363        H370   1.084   1_565  S
C364        C365   1.413       .  A
C365        C366   1.403       .  A
C365        C372   1.507       .  S
C366        C367   1.402       .  A
C366        H371   1.084       .  S
C367        C368   1.412       .  A
C368        C369   1.507   1_565  S
C369        H373   1.111       .  S
C369        H374   1.109       .  S
C369        H375   1.111       .  S
C372        H376   1.110       .  S
C372        H377   1.108       .  S
C372        H378   1.111       .  S
C379        C380   1.407       .  A
C379        C384   1.409       .  A
C379        H386   1.084       .  S
C380        C381   1.419       .  A
C381        C382   1.398       .  A
C381        C388   1.509       .  S
C382        C383   1.399       .  A
C382        H387   1.085       .  S
C383        C384   1.412       .  A
C384        C385   1.505   1_565  S
C385        H389   1.111       .  S
C385        H390   1.110       .  S
C385        H391   1.109   1_545  S
C388        H392   1.110       .  S
C388        H393   1.107       .  S
C388        H394   1.111       .  S
C395        C396   1.404       .  A
C395        C400   1.405       .  A
C395        H402   1.084       .  S
C396        C397   1.415       .  A
C397        C398   1.404       .  A
C397        C404   1.507   1_565  S
C398        C399   1.403       .  A
C398        H403   1.084   1_565  S
C399        C400   1.415       .  A
C400        C401   1.508       .  S
C401        H405   1.111       .  S
C401        H406   1.109       .  S
C401        H407   1.111       .  S
C404        H408   1.110       .  S
C404        H409   1.107       .  S
C404        H410   1.111       .  S
C411        C412   1.400       .  A
C411        C416   1.399       .  A
C411        H418   1.084   1_565  S
C412        C413   1.413       .  A
C413        C414   1.409       .  A
C413        C420   1.505       .  S
C414        C415   1.405       .  A
C414        H419   1.084       .  S
C415        C416   1.416       .  A
C416        C417   1.510   1_565  S
C417        H421   1.111       .  S
C417        H422   1.106       .  S
C417        H423   1.110       .  S
C420        H424   1.110       .  S
C420        H425   1.109       .  S
C420        H426   1.111       .  S
C427        C428   1.405       .  A
C427        C432   1.408       .  A
C427        H434   1.084       .  S
C428        C429   1.415       .  A
C429        C430   1.400       .  A
C429        C436   1.509   1_565  S
C430        C431   1.400       .  A
C430        H435   1.085   1_565  S
C431        C432   1.412       .  A
C432        C433   1.505       .  S
C433        H437   1.111       .  S
C433        H438   1.110       .  S
C433        H439   1.110       .  S
C436        H440   1.110       .  S
C436        H441   1.107       .  S
C436        H442   1.111       .  S
C443        C444   1.403       .  A
C443        C448   1.402       .  A
C443        H450   1.084       .  S
C444        C445   1.414       .  A
C445        C446   1.404       .  A
C445        C452   1.507   1_565  S
C446        C447   1.404       .  A
C446        H451   1.084   1_565  S
C447        C448   1.412       .  A
C448        C449   1.505       .  S
C449        H453   1.111       .  S
C449        H454   1.109       .  S
C449        H455   1.109       .  S
C452        H456   1.110       .  S
C452        H457   1.107       .  S
C452        H458   1.111       .  S
C459        C460   1.402       .  A
C459        C464   1.404       .  A
C459        H466   1.084       .  S
C460        C461   1.413   1_455  A
C461        C462   1.404       .  A
C461        C468   1.508       .  S
C462        C463   1.403   1_655  A
C462        H467   1.084       .  S
C463        C464   1.415       .  A
C464        C465   1.507       .  S
C465        H469   1.111       .  S
C465        H470   1.107       .  S
C465        H471   1.110       .  S
C468        H472   1.110       .  S
C468        H473   1.109       .  S
C468        H474   1.111       .  S
C475        C476   1.401   1_455  A
C475        C480   1.404       .  A
C475        H482   1.084       .  S
C476        C477   1.412       .  A
C477        C478   1.404       .  A
C477        C484   1.506       .  S
C478        C479   1.401   1_655  A
C478        H483   1.084       .  S
C479        C480   1.411       .  A
C480        C481   1.506       .  S
C481        H485   1.111       .  S
C481        H486   1.110       .  S
C481        H487   1.110       .  S
C484        H488   1.110       .  S
C484        H489   1.110       .  S
C484        H490   1.111       .  S
C491        C492   1.404       .  A
C491        C496   1.404       .  A
C491        H498   1.084       .  S
C492        C493   1.417   1_455  A
C493        C494   1.404       .  A
C493        C500   1.508       .  S
C494        C495   1.405   1_655  A
C494        H499   1.084       .  S
C495        C496   1.419       .  A
C496        C497   1.509       .  S
C497        H501   1.111       .  S
C497        H502   1.110       .  S
C497        H503   1.110       .  S
C500        H504   1.110       .  S
C500        H505   1.107       .  S
C500        H506   1.111       .  S
C507        C508   1.404   1_655  A
C507        C512   1.409       .  A
C507        H514   1.084       .  S
C508        C509   1.413       .  A
C509        C510   1.400       .  A
C509        C516   1.509       .  S
C510        C511   1.402       .  A
C510        H515   1.084       .  S
C511        C512   1.414   1_455  A
C512        C513   1.505       .  S
C513        H517   1.111       .  S
C513        H518   1.110       .  S
C513        H519   1.109       .  S
C516        H520   1.107       .  S
C516        H521   1.110       .  S
C516        H522   1.111       .  S
C523        C524   1.404   1_455  A
C523        C528   1.405       .  A
C523        H530   1.084       .  S
C524        C525   1.415       .  A
C525        C526   1.403       .  A
C525        C532   1.508       .  S
C526        C527   1.403   1_655  A
C526        H531   1.084       .  S
C527        C528   1.415       .  A
C528        C529   1.508       .  S
C529        H533   1.111       .  S
C529        H534   1.109       .  S
C529        H535   1.111       .  S
C532        H536   1.110       .  S
C532        H537   1.107       .  S
C532        H538   1.111       .  S
C539        C540   1.404   1_655  A
C539        C544   1.408       .  A
C539        H546   1.084       .  S
C540        C541   1.412       .  A
C541        C542   1.400       .  A
C541        C548   1.508       .  S
C542        C543   1.401       .  A
C542        H547   1.084       .  S
C543        C544   1.413   1_455  A
C544        C545   1.505       .  S
C545        H549   1.111       .  S
C545        H550   1.110       .  S
C545        H551   1.110       .  S
C548        H552   1.108       .  S
C548        H553   1.110       .  S
C548        H554   1.111       .  S
C555        C556   1.403   1_655  A
C555        C560   1.408       .  A
C555        H562   1.084       .  S
C556        C557   1.413       .  A
C557        C558   1.400       .  A
C557        C564   1.508       .  S
C558        C559   1.402       .  A
C558        H563   1.084       .  S
C559        C560   1.414   1_455  A
C560        C561   1.506       .  S
C561        H565   1.111       .  S
C561        H566   1.109       .  S
C561        H567   1.110       .  S
C564        H568   1.110       .  S
C564        H569   1.108       .  S
C564        H570   1.111       .  S
C571        C572   1.403   1_455  A
C571        C576   1.404       .  A
C571        H578   1.084       .  S
C572        C573   1.415       .  A
C573        C574   1.403       .  A
C573        C580   1.507       .  S
C574        C575   1.402       .  A
C574        H579   1.084       .  S
C575        C576   1.413   1_655  A
C576        C577   1.505       .  S
C577        H581   1.111       .  S
C577        H582   1.109       .  S
C577        H583   1.110       .  S
C580        H584   1.110       .  S
C580        H585   1.107       .  S
C580        H586   1.111       .  S
C587        C588   1.404   1_554  A
C587        C592   1.403       .  A
C587        H594   1.084       .  S
C588        C589   1.417       .  A
C589        C590   1.402       .  A
C589        C596   1.509       .  S
C590        C591   1.405       .  A
C590        H595   1.083       .  S
C591        C592   1.419   1_556  A
C592        C593   1.508       .  S
C593        H597   1.111       .  S
C593        H598   1.107       .  S
C593        H599   1.110       .  S
C596        H600   1.107       .  S
C596        H601   1.110       .  S
C596        H602   1.111       .  S
C603        C604   1.403       .  A
C603        C608   1.407       .  A
C603        H610   1.084       .  S
C604        C605   1.414   1_554  A
C605        C606   1.400       .  A
C605        C612   1.509       .  S
C606        C607   1.403   1_556  A
C606        H611   1.084       .  S
C607        C608   1.415       .  A
C608        C609   1.506       .  S
C609        H613   1.111       .  S
C609        H614   1.108       .  S
C609        H615   1.110       .  S
C612        H616   1.110       .  S
C612        H617   1.106       .  S
C612        H618   1.111       .  S
C619        C620   1.404   1_554  A
C619        C624   1.404       .  A
C619        H626   1.084       .  S
C620        C621   1.420       .  A
C621        C622   1.403       .  A
C621        C628   1.509       .  S
C622        C623   1.405       .  A
C622        H627   1.083       .  S
C623        C624   1.420   1_556  A
C624        C625   1.507       .  S
C625        H629   1.111       .  S
C625        H630   1.110       .  S
C625        H631   1.107   1_554  S
C628        H632   1.110       .  S
C628        H633   1.110       .  S
C628        H634   1.111       .  S
C635        C636   1.399   1_554  A
C635        C640   1.408       .  A
C635        H642   1.084       .  S
C636        C637   1.408       .  A
C637        C638   1.398       .  A
C637        C644   1.509       .  S
C638        C639   1.407       .  A
C638        H643   1.084       .  S
C639        C640   1.421   1_556  A
C640        C641   1.505       .  S
C641        H645   1.111       .  S
C641        H646   1.110       .  S
C641        H647   1.108       .  S
C644        H648   1.109       .  S
C644        H649   1.110       .  S
C644        H650   1.111       .  S
C651        C652   1.405       .  A
C651        C656   1.403       .  A
C651        H658   1.084       .  S
C652        C653   1.417   1_554  A
C653        C654   1.402       .  A
C653        C660   1.508       .  S
C654        C655   1.403   1_556  A
C654        H659   1.084       .  S
C655        C656   1.415       .  A
C656        C657   1.508       .  S
C657        H661   1.111       .  S
C657        H662   1.110       .  S
C657        H663   1.111       .  S
C660        H664   1.110       .  S
C660        H665   1.107       .  S
C660        H666   1.111       .  S
C667        C668   1.403   1_556  A
C667        C672   1.408       .  A
C667        H674   1.084       .  S
C668        C669   1.412       .  A
C669        C670   1.398       .  A
C669        C676   1.509       .  S
C670        C671   1.403       .  A
C670        H675   1.084       .  S
C671        C672   1.416   1_554  A
C672        C673   1.506       .  S
C673        H677   1.111       .  S
C673        H678   1.109       .  S
C673        H679   1.110       .  S
C676        H680   1.110       .  S
C676        H681   1.107       .  S
C676        H682   1.111       .  S
C683        C684   1.399       .  A
C683        C688   1.396       .  A
C683        H690   1.085       .  S
C684        C685   1.412   1_556  A
C685        C686   1.408       .  A
C685        C692   1.505       .  S
C686        C687   1.406   1_554  A
C686        H691   1.084       .  S
C687        C688   1.416       .  A
C688        C689   1.508       .  S
C689        H693   1.111       .  S
C689        H694   1.110       .  S
C689        H695   1.107       .  S
C692        H696   1.110       .  S
C692        H697   1.109       .  S
C692        H698   1.111       .  S
C699        C700   1.402   1_556  A
C699        C704   1.402       .  A
C699        H706   1.085       .  S
C700        C701   1.416       .  A
C701        C702   1.403       .  A
C701        C708   1.508       .  S
C702        C703   1.404   1_554  A
C702        H707   1.085       .  S
C703        C704   1.419       .  A
C704        C705   1.509       .  S
C705        H709   1.111       .  S
C705        H710   1.110       .  S
C705        H711   1.102       .  S
C708        H712   1.106       .  S
C708        H713   1.110       .  S
C708        H714   1.111       .  S
