geometry optimzed in LAMMPS
_audit_creation_date              2020-11-30 
_audit_creation_method            'lammps2cif' 
_symmetry_space_group_name_H-M    'P1' 
_symmetry_Int_Tables_number       1 
_symmetry_cell_setting            triclinic 
loop_ 
_symmetry_equiv_pos_as_xyz 
  x,y,z 
_cell_length_a                    41.410336530299595 
_cell_length_b                    41.46118775143978 
_cell_length_c                    63.50009831424924 
_cell_angle_alpha                 90.15191609072595 
_cell_angle_beta                  90.05973241135048 
_cell_angle_gamma                 88.74056220133647 
loop_ 
_atom_site_label 
_atom_site_type_symbol 
_atom_site_fract_x 
_atom_site_fract_y 
_atom_site_fract_z 
_atom_site_charge 
O1          O  0.03075367  0.46818418  0.52307213    -0.72140
O2          O  0.02845714  0.03419334  0.47751429    -0.73120
O3          O  0.02631950  0.03525559  0.52279188    -0.61740
O4          O  0.03257722  0.46719538  0.47787029    -0.70150
O5          O  0.47920305  0.46562662  0.47627520    -0.69700
O6          O  0.47289365  0.03139452  0.52250929    -0.60960
O7          O  0.47489529  0.03319341  0.47692656    -0.73470
O8          O  0.47745928  0.46442200  0.52159859    -0.72240
Cu9        Cu  0.03134942  0.50130659  0.50033159     1.04560
Cu10       Cu  0.47421154  0.99864395  0.49924570     1.04330
C11         C  0.00444822  0.45724879  0.53034931     0.94060
C12         C  0.50154400  0.04275431  0.46921589     0.93200
C13         C  0.99868928  0.04202501  0.53077970     0.85340
C14         C  0.50691397  0.45702399  0.46912349     0.91610
C15         C  0.00600339  0.50007170  0.75034259    -0.01680
C16         C  0.00669167  0.00163021  0.24938192    -0.01680
N17         N  0.99712544  0.38311730  0.35418682    -0.26490
N18         N  0.01411965  0.40890780  0.35028208    -0.34340
C19         C  0.02077617  0.42378861  0.36852324     0.01850
C20         C  0.00754244  0.40624056  0.38482670     0.07880
C21         C  0.99256367  0.38057911  0.37510234    -0.05220
H22         H  0.03377432  0.44602938  0.36975721     0.08550
H23         H  0.97995379  0.36118098  0.38262338     0.09750
Cu24       Cu  0.02536164  0.42212288  0.31985834     0.44170
Cu25       Cu  0.98429776  0.35273108  0.33000975     0.41990
Cu26       Cu  0.00463187  0.36907674  0.27506440     0.43880
N27         N  0.02099823  0.43700954  0.28895389    -0.33870
N28         N  0.01107246  0.41926052  0.27296594    -0.28130
C29         C  0.00495384  0.43908251  0.25652747    -0.04230
C30         C  0.01073528  0.47084886  0.26260190     0.07990
C31         C  0.02217610  0.46798018  0.28303902     0.01790
H32         H  0.99608311  0.43114426  0.24139199     0.09440
H33         H  0.03006960  0.48709696  0.29328164     0.08520
N34         N  0.99705462  0.32243413  0.28685499    -0.35320
N35         N  0.98774213  0.31841198  0.30657613    -0.27500
C36         C  0.98701511  0.28701676  0.31094731    -0.02740
C37         C  0.99666103  0.26961818  0.29344544     0.05870
C38         C  0.00263566  0.29284054  0.27818312     0.03960
H39         H  0.98192924  0.27770015  0.32645404     0.09070
H40         H  0.01240002  0.28865560  0.26258874     0.07900
O41         O  0.47178363  0.46990874  0.02141760    -0.72140
O42         O  0.04133294  0.47096052  0.97833880    -0.73120
O43         O  0.03910197  0.46978986  0.02387189    -0.61740
O44         O  0.47422609  0.47197106  0.97648202    -0.70150
O45         O  0.47425478  0.02557679  0.97731376    -0.69700
O46         O  0.03814534  0.02340226  0.02453682    -0.60960
O47         O  0.04139395  0.02451977  0.97909988    -0.73470
O48         O  0.47034450  0.02338174  0.02268483    -0.72240
Cu49       Cu  0.00672418  0.46883694  0.00002046     1.04560
Cu50       Cu  0.00606213  0.02608367  0.00096665     1.04330
C51         C  0.46112761  0.49612963  0.02964051     0.94060
C52         C  0.05043932  0.49772238  0.97073832     0.93200
C53         C  0.04730230  0.49638909  0.03237500     0.85340
C54         C  0.46568597  0.49927636  0.96873998     0.91610
N55         N  0.38408548  0.00940363  0.14328897    -0.26490
N56         N  0.41288477  0.99687895  0.14744913    -0.34340
C57         C  0.42858236  0.99109992  0.12934890     0.01850
C58         C  0.40849010  0.00012390  0.11284335     0.07880
C59         C  0.38041382  0.01187274  0.12226489    -0.05220
H60         H  0.45287942  0.98106523  0.12831520     0.08550
H61         H  0.35864413  0.02050193  0.11447487     0.09750
Cu62       Cu  0.42831495  0.98851137  0.17779089     0.44050
Cu63       Cu  0.35208772  0.01854389  0.16751151     0.41990
Cu64       Cu  0.37402502  0.00123664  0.22297435     0.43880
N65         N  0.44335138  0.99084701  0.20862290    -0.33870
N66         N  0.42477845  0.99716420  0.22510799    -0.28130
C67         C  0.44412235  0.00121318  0.24199539    -0.04230
C68         C  0.47636472  0.99792459  0.23569380     0.07990
C69         C  0.47444187  0.99027420  0.21450405     0.01790
H70         H  0.43547558  0.00702859  0.25765346     0.09440
H71         H  0.49408718  0.98479822  0.20381457     0.08520
N72         N  0.32621867  0.00514505  0.21167937    -0.35320
N73         N  0.31989922  0.01291901  0.19186404    -0.27500
C74         C  0.28829914  0.01067701  0.18822987    -0.02740
C75         C  0.27328848  0.00075997  0.20634882     0.05870
C76         C  0.29798375  0.99769563  0.22115609     0.03960
H77         H  0.27738849  0.01387553  0.17286602     0.09070
H78         H  0.29595980  0.98843228  0.23700582     0.07900
N79         N  0.99642426  0.12126144  0.35604430    -0.26490
N80         N  0.98647012  0.09216690  0.35132947    -0.34340
C81         C  0.98382525  0.07502654  0.36915176     0.01850
C82         C  0.99186469  0.09477396  0.38588138     0.07880
C83         C  0.99980449  0.12394689  0.37704050    -0.05220
H84         H  0.97770330  0.04983467  0.36983681     0.08550
H85         H  0.00893868  0.14486291  0.38509997     0.09750
Cu86       Cu  0.98102852  0.07833270  0.32027955     0.44170
Cu87       Cu  0.00703177  0.15320439  0.33253905     0.41990
Cu88       Cu  0.00373348  0.13396929  0.27640670     0.43880
N89         N  0.98876763  0.06503206  0.28930542    -0.33870
N90         N  0.99932936  0.08345175  0.27389164    -0.28130
C91         C  0.00696128  0.06416553  0.25737045    -0.04230
C92         C  0.00150192  0.03210850  0.26280874     0.07990
C93         C  0.98867106  0.03422917  0.28290016     0.01790
H94         H  0.01639155  0.07277195  0.24259402     0.09440
H95         H  0.98029414  0.01473211  0.29257240     0.08520
N96         N  0.00638067  0.18142922  0.28824481    -0.35320
N97         N  0.00906149  0.18644285  0.30873947    -0.27500
C98         C  0.00802022  0.21798681  0.31275733    -0.02740
C99         C  0.00403525  0.23453963  0.29414161     0.05870
C100        C  0.00338951  0.21061782  0.27865466     0.03960
H101        H  0.00822265  0.22797640  0.32850114     0.09070
H102        H  0.99900364  0.21406461  0.26200135     0.07900
N103        N  0.12674330  0.49725527  0.14590710    -0.26490
N104        N  0.10146326  0.51592776  0.15036622    -0.34340
C105        C  0.08475472  0.52170752  0.13260237     0.01850
C106        C  0.10031676  0.50589708  0.11606907     0.07880
C107        C  0.12710459  0.49085732  0.12510422    -0.05220
H108        H  0.06214342  0.53526630  0.13197071     0.08550
H109        H  0.14450603  0.47496493  0.11738949     0.09750
Cu110      Cu  0.08843233  0.52720114  0.18105809     0.44170
Cu111      Cu  0.15757023  0.48096387  0.16928011     0.41990
Cu112      Cu  0.13957861  0.49648724  0.22434944     0.43880
N113        N  0.07228048  0.51896332  0.21138290    -0.33870
N114        N  0.08947699  0.50488208  0.22646223    -0.28130
C115        C  0.06925249  0.49667252  0.24210225    -0.04230
C116        C  0.03770534  0.50564949  0.23652321     0.07990
C117        C  0.04119222  0.52097299  0.21728621     0.01790
H118        H  0.07688933  0.48458333  0.25640197     0.09440
H119        H  0.02232018  0.53200075  0.20777348     0.08520
N120        N  0.18666948  0.48897509  0.21288738    -0.35320
N121        N  0.19160248  0.48097018  0.19295918    -0.27500
C122        C  0.22318744  0.48104119  0.18883751    -0.02740
C123        C  0.23957684  0.49003929  0.20674417     0.05870
C124        C  0.21569217  0.49465590  0.22193605     0.03960
H125        H  0.23316200  0.47797520  0.17320160     0.09070
H126        H  0.21884726  0.50434495  0.23762428     0.07900
N127        N  0.38690904  0.49845078  0.85544079    -0.26490
N128        N  0.41495828  0.48484765  0.85060712    -0.34340
C129        C  0.43253805  0.48111140  0.86824960     0.01850
C130        C  0.41416886  0.49239565  0.88505384     0.07880
C131        C  0.38524857  0.50312193  0.87638534    -0.05220
H132        H  0.45722766  0.47201625  0.86873442     0.08550
H133        H  0.36532382  0.51504656  0.88449062     0.09750
Cu134      Cu  0.42718459  0.47697305  0.81948424     0.44170
Cu135      Cu  0.35540294  0.51145097  0.83183750     0.41990
Cu136      Cu  0.37298848  0.50384430  0.77528011     0.43880
N137        N  0.44116966  0.48592176  0.78892080    -0.33870
N138        N  0.42349598  0.49854443  0.77351755    -0.28130
C139        C  0.44353647  0.50643599  0.75763193    -0.04230
C140        C  0.47526957  0.49903444  0.76359153     0.07990
C141        C  0.47214161  0.48455912  0.78307663     0.01790
H142        H  0.43569145  0.51664578  0.74276642     0.09440
H143        H  0.49109566  0.47384612  0.79266712     0.08520
N144        N  0.32610618  0.50740822  0.78772082    -0.35320
N145        N  0.32179284  0.51221567  0.80812645    -0.27500
C146        C  0.29048225  0.51172620  0.81262920    -0.02740
C147        C  0.27338748  0.50574930  0.79449065     0.05870
C148        C  0.29669015  0.50341895  0.77870666     0.03960
H149        H  0.28122662  0.51364393  0.82850134     0.09070
H150        H  0.29277823  0.49744016  0.76231735     0.07900
N151        N  0.99615427  0.38055677  0.64379852    -0.26490
N152        N  0.98874957  0.41072363  0.64847203    -0.34340
C153        C  0.98752627  0.42807636  0.63064420     0.01850
C154        C  0.99382743  0.40730496  0.61395040     0.07880
C155        C  0.99919990  0.37729304  0.62282880    -0.05220
H156        H  0.98356860  0.45393432  0.62992368     0.08550
H157        H  0.00658973  0.35527527  0.61482331     0.09750
Cu158      Cu  0.98504117  0.42396599  0.67969752     0.44170
Cu159      Cu  0.00471087  0.34876784  0.66778946     0.41990
Cu160      Cu  0.00766188  0.36739191  0.72454272     0.43880
N161        N  0.99351772  0.43641902  0.71061673    -0.33870
N162        N  0.00444663  0.41812471  0.72624660    -0.28130
C163        C  0.01155601  0.43768244  0.74261850    -0.04230
C164        C  0.00533142  0.46964611  0.73677062     0.07990
C165        C  0.99242646  0.46721966  0.71675926     0.01790
H166        H  0.02022052  0.42935107  0.75778618     0.09440
H167        H  0.98260439  0.48646637  0.70706697     0.08520
N168        N  0.00695310  0.32026046  0.71220764    -0.35320
N169        N  0.00698434  0.31581467  0.69158904    -0.27500
C170        C  0.00522071  0.28461344  0.68718779    -0.02740
C171        C  0.00359468  0.26752871  0.70566483     0.05870
C172        C  0.00498543  0.29086050  0.72151142     0.03960
H173        H  0.00416632  0.27542748  0.67127458     0.09070
H174        H  0.00357748  0.28690009  0.73831951     0.07900
N175        N  0.00449173  0.11834408  0.64482033    -0.26490
N176        N  0.01729859  0.08985806  0.64929932    -0.34340
C177        C  0.01951903  0.07229903  0.63152279     0.01850
C178        C  0.00801487  0.09114371  0.61500681     0.07880
C179        C  0.99882051  0.12032048  0.62400449    -0.05220
H180        H  0.02790288  0.04741509  0.63075571     0.08550
H181        H  0.98733055  0.14074928  0.61622429     0.09750
Cu182      Cu  0.02640895  0.07772541  0.68033533     0.44170
Cu183      Cu  0.99390433  0.15000052  0.66877836     0.41990
Cu184      Cu  0.00182028  0.13278437  0.72524348     0.43880
N185        N  0.01907859  0.06446882  0.71128117    -0.33870
N186        N  0.00715057  0.08230627  0.72687365    -0.28130
C187        C  0.99994547  0.06246697  0.74299164    -0.04230
C188        C  0.00711123  0.03071136  0.73703327     0.07990
C189        C  0.02073845  0.03361187  0.71725018     0.01790
H190        H  0.99026892  0.07045887  0.75799220     0.09440
H191        H  0.03101921  0.01459104  0.70751300     0.08520
N192        N  0.99831532  0.17960859  0.71283292    -0.35320
N193        N  0.99377919  0.18366359  0.69239806    -0.27500
C194        C  0.99373584  0.21487263  0.68780385    -0.02740
C195        C  0.99892639  0.23229150  0.70592778     0.05870
C196        C  0.00152998  0.20917894  0.72179495     0.03960
H197        H  0.99154394  0.22383445  0.67189462     0.09070
H198        H  0.00669740  0.21339589  0.73826791     0.07900
N199        N  0.12587819  0.50459894  0.85675222    -0.26490
N200        N  0.09630062  0.51458032  0.85225205    -0.34340
C201        C  0.07918702  0.51704021  0.87017222     0.01850
C202        C  0.09950149  0.50886358  0.88676328     0.07880
C203        C  0.12898191  0.50108169  0.87770361    -0.05220
H204        H  0.05366008  0.52307187  0.87101652     0.08550
H205        H  0.15041453  0.49178926  0.88557950     0.09750
Cu206      Cu  0.08266792  0.51993103  0.82116373     0.44170
Cu207      Cu  0.15737467  0.49403711  0.83272677     0.41990
Cu208      Cu  0.13855348  0.49792174  0.77615435     0.43880
N209        N  0.06958915  0.51207672  0.79024312    -0.33870
N210        N  0.08789291  0.50161454  0.77445633    -0.28130
C211        C  0.06836811  0.49485535  0.75802175    -0.04230
C212        C  0.03637210  0.50082257  0.76395603     0.07990
C213        C  0.03870544  0.51310217  0.78416455     0.01790
H214        H  0.07674214  0.48648319  0.74277985     0.09440
H215        H  0.01935787  0.52241356  0.79401736     0.08520
N216        N  0.18573205  0.49614758  0.78832599    -0.35320
N217        N  0.19046460  0.49297137  0.80881534    -0.27500
C218        C  0.22181341  0.49420856  0.81309992    -0.02740
C219        C  0.23853292  0.49895184  0.79470319     0.05870
C220        C  0.21495229  0.49977108  0.77901257     0.03960
H221        H  0.23135450  0.49342016  0.82894192     0.09070
H222        H  0.21854757  0.50437009  0.76242169     0.07900
C223        C  0.46594983  0.01483378  0.93130771     0.24400
C224        C  0.44960739  0.50055791  0.94814517    -0.23710
C225        C  0.42029800  0.48518531  0.94438679     0.19310
C226        C  0.40776060  0.48375904  0.92387274     0.24340
C227        C  0.42518574  0.49650953  0.90692427    -0.23650
C228        C  0.45410884  0.01241820  0.91082930     0.19240
F229        F  0.47099138  0.02557230  0.89479091    -0.13610
F230        F  0.49444686  0.02966915  0.93458710    -0.15970
F231        F  0.37946755  0.46869055  0.92041130    -0.15970
F232        F  0.40408214  0.47146361  0.96049595    -0.13610
C233        C  0.42100173  0.02057873  0.05532330     0.24400
C234        C  0.44098198  0.99448361  0.04887666    -0.23710
C235        C  0.44590695  0.46828001  0.06272849     0.19310
C236        C  0.43407349  0.46974143  0.08322299     0.24340
C237        C  0.41608030  0.99682303  0.09019750    -0.23650
C238        C  0.40824521  0.02153266  0.07579621     0.19240
F239        F  0.39023647  0.04763231  0.08194212    -0.13610
F240        F  0.41479918  0.04563678  0.04210058    -0.15970
F241        F  0.44110801  0.44491593  0.09648926    -0.15970
F242        F  0.46499242  0.44252729  0.05727646    -0.13610
C243        C  0.10320997  0.02251357  0.92507112     0.24400
C244        C  0.09003763  0.50393564  0.90880512    -0.23710
C245        C  0.06661027  0.48120698  0.91350897     0.19310
C246        C  0.05568067  0.47771764  0.93411213     0.24340
C247        C  0.06740346  0.49755609  0.95033621    -0.23650
C248        C  0.09147536  0.01981218  0.94570324     0.19240
F249        F  0.10311065  0.03925074  0.96103853    -0.13610
F250        F  0.12619591  0.04437573  0.92076933    -0.15970
F251        F  0.03176533  0.45658010  0.93786917    -0.15970
F252        F  0.05387106  0.46273889  0.89801693    -0.13610
C253        C  0.05458323  0.49851343  0.09113012     0.24400
C254        C  0.08790895  0.50185823  0.09434984    -0.23710
C255        C  0.10863261  0.00144719  0.07672736     0.19310
C256        C  0.09593767  0.99888643  0.05623099     0.24340
C257        C  0.06256326  0.49625565  0.05328042    -0.23650
C258        C  0.04216713  0.49597545  0.07085299     0.19240
F259        F  0.00979497  0.49414625  0.06832996    -0.13610
F260        F  0.03383525  0.49721416  0.10763498    -0.15970
F261        F  0.11602927  0.99962181  0.03937491    -0.15970
F262        F  0.14093760  0.00473059  0.07929263    -0.13610
C263        C  0.03664832  0.42838525  0.41593780     0.24400
C264        C  0.00894352  0.41415590  0.40756717    -0.23710
C265        C  0.48217572  0.40961909  0.42079481     0.19310
C266        C  0.48223637  0.42152932  0.44147604     0.24340
C267        C  0.00917909  0.43791931  0.44935261    -0.23650
C268        C  0.03685908  0.44001366  0.43657983     0.19240
F269        F  0.06357109  0.45526655  0.44346950    -0.13610
F270        F  0.06351252  0.43169139  0.40396699    -0.15970
F271        F  0.45540878  0.41812862  0.45347754    -0.15970
F272        F  0.45511423  0.39562157  0.41334546    -0.13610
C273        C  0.48104110  0.41724923  0.55543729     0.24400
C274        C  0.00498064  0.43952730  0.55049251    -0.23710
C275        C  0.02686418  0.44878484  0.56630093     0.19310
C276        C  0.02356106  0.43756240  0.58684676     0.24340
C277        C  0.99887391  0.41638735  0.59188889    -0.23650
C278        C  0.47835880  0.40537141  0.57599110     0.19240
F279        F  0.45457195  0.38454015  0.58063804    -0.13610
F280        F  0.45969422  0.40773069  0.54054717    -0.15970
F281        F  0.04406331  0.44796992  0.60199662    -0.15970
F282        F  0.04998215  0.47067926  0.56231696    -0.13610
C283        C  0.02096362  0.06249066  0.41296295     0.24400
C284        C  0.99635040  0.08485496  0.40789726    -0.23710
C285        C  0.47521680  0.09611751  0.42366889     0.19310
C286        C  0.47748840  0.08357407  0.44412704     0.24340
C287        C  0.00161063  0.06041761  0.44909145    -0.23650
C288        C  0.02384659  0.05064230  0.43342661     0.19240
F289        F  0.04701000  0.02779717  0.43751051    -0.13610
F290        F  0.04177474  0.05153059  0.39791044    -0.15970
F291        F  0.45586844  0.09356151  0.45895166    -0.15970
F292        F  0.45151245  0.11809640  0.41900986    -0.13610
C293        C  0.48414473  0.04052604  0.56837793     0.24400
C294        C  0.99701409  0.05788169  0.55148425    -0.23710
C295        C  0.01192969  0.08737336  0.55539992     0.19310
C296        C  0.01425311  0.09913751  0.57608080     0.24340
C297        C  0.00293544  0.08077105  0.59304935    -0.23650
C298        C  0.48744654  0.05165362  0.58899038     0.19240
F299        F  0.47566366  0.03381707  0.60503982    -0.13610
F300        F  0.47015841  0.01162738  0.56503386    -0.15970
F301        F  0.02899971  0.12755838  0.57963841    -0.15970
F302        F  0.02461317  0.10439572  0.53928550    -0.13610
O303        O  0.03071934  0.96819033  0.52306355    -0.72140
O304        O  0.02850062  0.53418892  0.47752052    -0.73120
O305        O  0.02636310  0.53524944  0.52279950    -0.61740
O306        O  0.03254029  0.96720127  0.47786430    -0.70150
O307        O  0.47917692  0.96562545  0.47625421    -0.69700
O308        O  0.47293416  0.53139374  0.52252770    -0.60960
O309        O  0.47493109  0.53319514  0.47694779    -0.73470
O310        O  0.47742259  0.96442086  0.52157869    -0.72240
Cu311      Cu  0.03130950  0.00131268  0.50032459     1.04560
Cu312      Cu  0.47424615  0.49864484  0.49926568     1.04330
C313        C  0.00441669  0.95725079  0.53034179     0.94060
C314        C  0.50158022  0.54275971  0.46923978     0.93200
C315        C  0.99873355  0.54201926  0.53078821     0.85340
C316        C  0.50689016  0.95702388  0.46910511     0.91610
C317        C  0.00601634  0.00007558  0.75032225    -0.01680
C318        C  0.00668138  0.50162622  0.24937455    -0.01680
N319        N  0.99710018  0.88311673  0.35418391    -0.26490
N320        N  0.01410343  0.90890220  0.35028203    -0.34340
C321        C  0.02075964  0.92377986  0.36852408     0.01850
C322        C  0.00751698  0.90623467  0.38482542     0.07880
C323        C  0.99253267  0.88057841  0.37509886    -0.05220
H324        H  0.03376381  0.94601679  0.36975988     0.08550
H325        H  0.97991507  0.86118369  0.38261799     0.09750
Cu326      Cu  0.02536010  0.92211800  0.31986183     0.44170
Cu327      Cu  0.98426863  0.85273637  0.33000454     0.41990
Cu328      Cu  0.00463579  0.86907851  0.27506555     0.43880
N329        N  0.02100725  0.93700992  0.28895894    -0.33870
N330        N  0.01108501  0.91926216  0.27296944    -0.28130
C331        C  0.00496975  0.93908585  0.25653161    -0.04230
C332        C  0.01074887  0.97085198  0.26260816     0.07990
C333        C  0.02218492  0.96798181  0.28304611     0.01790
H334        H  0.99610078  0.93114900  0.24139539     0.09440
H335        H  0.03007256  0.98709852  0.29329086     0.08520
N336        N  0.99704112  0.82243631  0.28685291    -0.35320
N337        N  0.98771443  0.81841667  0.30657135    -0.27500
C338        C  0.98697740  0.78702194  0.31094252    -0.02740
C339        C  0.99663220  0.76962034  0.29344378     0.05870
C340        C  0.00262211  0.79284115  0.27818297     0.03960
H341        H  0.98187981  0.77770757  0.32644809     0.09070
H342        H  0.01239694  0.78865370  0.26259164     0.07900
O343        O  0.47171518  0.96992831  0.02141005    -0.72140
O344        O  0.04132761  0.97095962  0.97832699    -0.73120
O345        O  0.03907294  0.96979829  0.02386029    -0.61740
O346        O  0.47415028  0.97198145  0.97646969    -0.70150
O347        O  0.47433553  0.52556617  0.97733188    -0.69700
O348        O  0.03818069  0.52339392  0.02455412    -0.60960
O349        O  0.04140888  0.52452034  0.97912032    -0.73470
O350        O  0.47042993  0.52336276  0.02269534    -0.72240
Cu351      Cu  0.00670777  0.96883776  0.99999892     1.04560
Cu352      Cu  0.00608623  0.52608289  0.00099084     1.04330
C353        C  0.46105200  0.99614660  0.02963360     0.94060
C354        C  0.05043155  0.99771968  0.97072318     0.93200
C355        C  0.04726419  0.99640072  0.03236377     0.85340
C356        C  0.46561353  0.99928374  0.96872191     0.91610
N357        N  0.38429015  0.50940776  0.14331699    -0.26490
N358        N  0.41311648  0.49694926  0.14747639    -0.34340
C359        C  0.42883585  0.49123025  0.12937610     0.01850
C360        C  0.40872442  0.50022475  0.11287397     0.07880
C361        C  0.38061921  0.51189372  0.12229505    -0.05220
H362        H  0.45314508  0.48122594  0.12833869     0.08550
H363        H  0.35882394  0.52045466  0.11450527     0.09750
Cu364      Cu  0.42849071  0.48852566  0.17782012     0.44050
Cu365      Cu  0.35224476  0.51839549  0.16753069     0.41990
Cu366      Cu  0.37408831  0.50121642  0.22300213     0.43880
N367        N  0.44343406  0.49082746  0.20866871    -0.33870
N368        N  0.42484046  0.49715108  0.22514387    -0.28130
C369        C  0.44416530  0.50120920  0.24203940    -0.04230
C370        C  0.47641249  0.49791917  0.23575168     0.07990
C371        C  0.47451485  0.49025351  0.21456507     0.01790
H372        H  0.43550235  0.50703367  0.25769238     0.09440
H373        H  0.49417221  0.48477593  0.20388514     0.08520
N374        N  0.32629225  0.50508265  0.21168638    -0.35320
N375        N  0.32000824  0.51277989  0.19185453    -0.27500
C376        C  0.28841257  0.51054505  0.18820400    -0.02740
C377        C  0.27336327  0.50072082  0.20633219     0.05870
C378        C  0.29803550  0.49769765  0.22116016     0.03960
H379        H  0.27752624  0.51371418  0.17283056     0.09070
H380        H  0.29597736  0.48851970  0.23702909     0.07900
N381        N  0.99640772  0.62125735  0.35605002    -0.26490
N382        N  0.98648577  0.59215155  0.35133471    -0.34340
C383        C  0.98386082  0.57500736  0.36915711     0.01850
C384        C  0.99187944  0.59476373  0.38588712     0.07880
C385        C  0.99978567  0.62394636  0.37704618    -0.05220
H386        H  0.97776556  0.54980845  0.36984213     0.08550
H387        H  0.00889725  0.64487275  0.38510555     0.09750
Cu388      Cu  0.98105596  0.57831830  0.32028243     0.44170
Cu389      Cu  0.00698593  0.65320841  0.33254423     0.41990
Cu390      Cu  0.00375130  0.63396572  0.27640891     0.43880
N391        N  0.98878361  0.56502697  0.28930418    -0.33870
N392        N  0.99934821  0.58344684  0.27389121    -0.28130
C393        C  0.00697311  0.56416127  0.25736783    -0.04230
C394        C  0.00150465  0.53210487  0.26280360     0.07990
C395        C  0.98867504  0.53422621  0.28289551     0.01790
H396        H  0.01640262  0.57276717  0.24259098     0.09440
H397        H  0.98029130  0.51473026  0.29256610     0.08520
N398        N  0.00636705  0.68142922  0.28824810    -0.35320
N399        N  0.00901946  0.68644483  0.30874419    -0.27500
C400        C  0.00796474  0.71798865  0.31276144    -0.02740
C401        C  0.00400098  0.73454037  0.29414367     0.05870
C402        C  0.00338165  0.71061738  0.27865629     0.03960
H403        H  0.00814891  0.72797852  0.32850536     0.09070
H404        H  0.99902078  0.71406288  0.26200017     0.07900
N405        N  0.12670294  0.99720947  0.14590626    -0.26490
N406        N  0.10144144  0.01590678  0.15036815    -0.34340
C407        C  0.08473104  0.02170029  0.13260648     0.01850
C408        C  0.10026889  0.00587146  0.11607060     0.07880
C409        C  0.12704708  0.99080749  0.12510334    -0.05220
H410        H  0.06213662  0.03528811  0.13197823     0.08550
H411        H  0.14443309  0.97490102  0.11738633     0.09750
Cu412      Cu  0.08842674  0.02720603  0.18106028     0.44170
Cu413      Cu  0.15754204  0.98090022  0.16927352     0.41990
Cu414      Cu  0.13955184  0.99643541  0.22433948     0.43880
N415        N  0.07227926  0.01897978  0.21138865    -0.33870
N416        N  0.08947176  0.00487540  0.22646054    -0.28130
C417        C  0.06925323  0.99666347  0.24210155    -0.04230
C418        C  0.03771182  0.00566565  0.23653247     0.07990
C419        C  0.04119540  0.02100360  0.21729961     0.01790
H420        H  0.07689057  0.98455143  0.25639299     0.09440
H421        H  0.02232090  0.03203818  0.20779188     0.08520
N422        N  0.18662938  0.98889586  0.21288544    -0.35320
N423        N  0.19157381  0.98088578  0.19295931    -0.27500
C424        C  0.22316219  0.98097352  0.18884621    -0.02740
C425        C  0.23953382  0.98999238  0.20675651     0.05870
C426        C  0.21563976  0.99459996  0.22194030     0.03960
H427        H  0.23314824  0.97792771  0.17321189     0.09070
H428        H  0.21877606  0.00431763  0.23762273     0.07900
N429        N  0.38692479  0.99846989  0.85539560    -0.26490
N430        N  0.41496420  0.98484245  0.85056532    -0.34340
C431        C  0.43253477  0.98108891  0.86821075     0.01850
C432        C  0.41416872  0.99238661  0.88501320     0.07880
C433        C  0.38526098  0.00313942  0.87634017    -0.05220
H434        H  0.45721656  0.97197181  0.86869901     0.08550
H435        H  0.36534307  0.01507984  0.88444296     0.09750
Cu436      Cu  0.42719055  0.97695770  0.81944215     0.44170
Cu437      Cu  0.35543164  0.01149842  0.83179022     0.41990
Cu438      Cu  0.37300127  0.00385107  0.77523689     0.43880
N439        N  0.44117810  0.98591135  0.78887861    -0.33870
N440        N  0.42350806  0.99854408  0.77347694    -0.28130
C441        C  0.44355181  0.00644439  0.75759495    -0.04230
C442        C  0.47528346  0.99903810  0.76355524     0.07990
C443        C  0.47215083  0.98454970  0.78303601     0.01790
H444        H  0.43570993  0.01666430  0.74273167     0.09440
H445        H  0.49110305  0.97383101  0.79262541     0.08520
N446        N  0.32612168  0.00744084  0.78767891    -0.35320
N447        N  0.32181411  0.01227036  0.80808286    -0.27500
C448        C  0.29050391  0.01179358  0.81258890    -0.02740
C449        C  0.27340384  0.00580010  0.79445478     0.05870
C450        C  0.29670283  0.00344800  0.77866951     0.03960
H451        H  0.28125211  0.01372508  0.82846138     0.09070
H452        H  0.29278663  0.99744857  0.76228386     0.07900
N453        N  0.99615065  0.88053954  0.64378681    -0.26490
N454        N  0.98876617  0.91071099  0.64845951    -0.34340
C455        C  0.98755019  0.92806282  0.63063153     0.01850
C456        C  0.99383541  0.90728655  0.61393821     0.07880
C457        C  0.99919057  0.87727197  0.62281691    -0.05220
H458        H  0.98360643  0.95392252  0.62991041     0.08550
H459        H  0.00656336  0.85524881  0.61481144     0.09750
Cu460      Cu  0.98506864  0.92395676  0.67968364     0.44170
Cu461      Cu  0.00468738  0.84875296  0.66778137     0.41990
Cu462      Cu  0.00768050  0.86739095  0.72453506     0.43880
N463        N  0.99354178  0.93641548  0.71060099    -0.33870
N464        N  0.00446767  0.91812448  0.72623331    -0.28130
C465        C  0.01157269  0.93768599  0.74260396    -0.04230
C466        C  0.00534815  0.96964825  0.73675248     0.07990
C467        C  0.99244812  0.96721743  0.71674036     0.01790
H468        H  0.02023339  0.92935821  0.75777337     0.09440
H469        H  0.98262640  0.98646140  0.70704569     0.08520
N470        N  0.00695382  0.82025748  0.71220407    -0.35320
N471        N  0.00696334  0.81580869  0.69158577    -0.27500
C472        C  0.00519639  0.78460725  0.68718744    -0.02740
C473        C  0.00359312  0.76752414  0.70566614     0.05870
C474        C  0.00499821  0.79085832  0.72151069     0.03960
H475        H  0.00412976  0.77542029  0.67127500     0.09070
H476        H  0.00361417  0.78689938  0.73831985     0.07900
N477        N  0.00452536  0.61832552  0.64483331    -0.26490
N478        N  0.01731726  0.58983464  0.64931554    -0.34340
C479        C  0.01953721  0.57227316  0.63153995     0.01850
C480        C  0.00804827  0.59112169  0.61502125     0.07880
C481        C  0.99886342  0.62030305  0.62401655    -0.05220
H482        H  0.02791133  0.54738603  0.63077508     0.08550
H483        H  0.98738645  0.64073663  0.61623381     0.09750
Cu484      Cu  0.02640950  0.57770881  0.68035486     0.44170
Cu485      Cu  0.99394562  0.64998445  0.66879028     0.41990
Cu486      Cu  0.00181465  0.63278075  0.72526113     0.43880
N487        N  0.01906978  0.56446231  0.71130158    -0.33870
N488        N  0.00713876  0.58230170  0.72689232    -0.28130
C489        C  0.99992993  0.56246380  0.74301050    -0.04230
C490        C  0.00709650  0.53070755  0.73705377     0.07990
C491        C  0.02072838  0.53360638  0.71727212     0.01790
H492        H  0.99025180  0.57045720  0.75801032     0.09440
H493        H  0.03101128  0.51458447  0.70753671     0.08520
N494        N  0.99833018  0.67960251  0.71284431    -0.35320
N495        N  0.99381601  0.68365079  0.69240693    -0.27500
C496        C  0.99377724  0.71485759  0.68780827    -0.02740
C497        C  0.99894556  0.73228360  0.70593201     0.05870
C498        C  0.00153375  0.70917646  0.72180371     0.03960
H499        H  0.99159834  0.72381238  0.67189679     0.09070
H500        H  0.00667722  0.71339996  0.73827919     0.07900
N501        N  0.12589999  0.00456926  0.85674054    -0.26490
N502        N  0.09631335  0.01452054  0.85223903    -0.34340
C503        C  0.07919518  0.01696379  0.87015780     0.01850
C504        C  0.09951471  0.00880756  0.88674992     0.07880
C505        C  0.12900432  0.00105549  0.87769237    -0.05220
H506        H  0.05366400  0.02297607  0.87100071     0.08550
H507        H  0.15044643  0.99178986  0.88557017     0.09750
Cu508      Cu  0.08267946  0.01987211  0.82115218     0.44170
Cu509      Cu  0.15740929  0.99404962  0.83271418     0.41990
Cu510      Cu  0.13856677  0.99791861  0.77613826     0.43880
N511        N  0.06959981  0.01204859  0.79022964    -0.33870
N512        N  0.08790522  0.00160587  0.77443857    -0.28130
C513        C  0.06838140  0.99486493  0.75800018    -0.04230
C514        C  0.03638463  0.00082491  0.76393633     0.07990
C515        C  0.03871611  0.01307954  0.78415115     0.01790
H516        H  0.07675626  0.98650889  0.74275481     0.09440
H517        H  0.01936849  0.02237913  0.79400828     0.08520
N518        N  0.18574883  0.99616754  0.78830675    -0.35320
N519        N  0.19048997  0.99300362  0.80879626    -0.27500
C520        C  0.22183972  0.99425624  0.81307555    -0.02740
C521        C  0.23855071  0.99899574  0.79467507     0.05870
C522        C  0.21496426  0.99979727  0.77898801     0.03960
H523        H  0.23138754  0.99347656  0.82891601     0.09070
H524        H  0.21855203  0.00438724  0.76239531     0.07900
C525        C  0.46596942  0.51486326  0.93133232     0.24400
C526        C  0.44955805  0.00055642  0.94811868    -0.23710
C527        C  0.42024385  0.98519788  0.94435143     0.19310
C528        C  0.40772726  0.98376430  0.92383195     0.24340
C529        C  0.42517817  0.99649101  0.90688677    -0.23650
C530        C  0.45410695  0.51245759  0.91085902     0.19240
F531        F  0.47096190  0.52563723  0.89481730    -0.13610
F532        F  0.49446090  0.52971321  0.93460346    -0.15970
F533        F  0.37942645  0.96871386  0.92036302    -0.15970
F534        F  0.40400192  0.97149866  0.96045757    -0.13610
C535        C  0.42111873  0.52059411  0.05533525     0.24400
C536        C  0.44106502  0.49447697  0.04888433    -0.23710
C537        C  0.44581743  0.96827780  0.06271463     0.19310
C538        C  0.43391485  0.96969403  0.08319350     0.24340
C539        C  0.41627920  0.49689442  0.09022808    -0.23650
C540        C  0.40841852  0.52158657  0.07582095     0.19240
F541        F  0.39044560  0.54770745  0.08197246    -0.13610
F542        F  0.41490211  0.54563852  0.04210398    -0.15970
F543        F  0.44092017  0.94484543  0.09644744    -0.15970
F544        F  0.46494745  0.94255292  0.05727236    -0.13610
C545        C  0.10320762  0.52254021  0.92508839     0.24400
C546        C  0.09005290  0.00388906  0.90879308    -0.23710
C547        C  0.06663020  0.98115821  0.91350200     0.19310
C548        C  0.05569164  0.97768664  0.93410438     0.24340
C549        C  0.06740134  0.99754433  0.95032273    -0.23650
C550        C  0.09148165  0.51982181  0.94572142     0.19240
F551        F  0.10312956  0.53924196  0.96106263    -0.13610
F552        F  0.12619963  0.54439843  0.92079175    -0.15970
F553        F  0.03178006  0.95654634  0.93786507    -0.15970
F554        F  0.05390283  0.96267158  0.89801519    -0.13610
C555        C  0.05451998  0.99859762  0.09112234     0.24400
C556        C  0.08785573  0.00185638  0.09434846    -0.23710
C557        C  0.10867877  0.50151542  0.07672610     0.19310
C558        C  0.09598102  0.49894778  0.05623125     0.24340
C559        C  0.06251294  0.99627646  0.05327415    -0.23650
C560        C  0.04210598  0.99607447  0.07084309     0.19240
F561        F  0.00972810  0.99432665  0.06831442    -0.13610
F562        F  0.03375829  0.99736258  0.10762269    -0.15970
F563        F  0.11606088  0.49975402  0.03937151    -0.15970
F564        F  0.14097523  0.50487264  0.07928832    -0.13610
C565        C  0.03662053  0.92837462  0.41593839     0.24400
C566        C  0.00891501  0.91414925  0.40756580    -0.23710
C567        C  0.48216329  0.90964177  0.42076354     0.19310
C568        C  0.48221821  0.92154344  0.44144695     0.24340
C569        C  0.00914495  0.93791709  0.44934973    -0.23650
C570        C  0.03682842  0.94000542  0.43657966     0.19240
F571        F  0.06354155  0.95525474  0.44347098    -0.13610
F572        F  0.06348816  0.93167536  0.40397009    -0.15970
F573        F  0.45538420  0.91814451  0.45344260    -0.15970
F574        F  0.45510105  0.89565353  0.41330766    -0.13610
C575        C  0.48100487  0.91723635  0.55541259     0.24400
C576        C  0.00495730  0.93952243  0.55048225    -0.23710
C577        C  0.02685542  0.94876708  0.56628541     0.19310
C578        C  0.02356505  0.93753615  0.58682991     0.24340
C579        C  0.99887575  0.91636592  0.59187587    -0.23650
C580        C  0.47831263  0.90535559  0.57596529     0.19240
F581        F  0.45453331  0.88451116  0.58060334    -0.13610
F582        F  0.45967516  0.90770714  0.54051494    -0.15970
F583        F  0.04408072  0.94793263  0.60197534    -0.15970
F584        F  0.04997606  0.97065755  0.56229866    -0.13610
C585        C  0.02100065  0.56250171  0.41297055     0.24400
C586        C  0.99637406  0.58485102  0.40790395    -0.23710
C587        C  0.47524898  0.59614096  0.42370482     0.19310
C588        C  0.47751802  0.58358543  0.44415938     0.24340
C589        C  0.00165191  0.56042214  0.44910008    -0.23650
C590        C  0.02389243  0.55065790  0.43343512     0.19240
F591        F  0.04706889  0.52782623  0.43751944    -0.13610
F592        F  0.04181682  0.55155166  0.39791806    -0.15970
F593        F  0.45588577  0.59355144  0.45898224    -0.15970
F594        F  0.45153321  0.61810788  0.41904648    -0.13610
C595        C  0.48417568  0.54050890  0.56839367     0.24400
C596        C  0.99705964  0.55787094  0.55149460    -0.23710
C597        C  0.01197861  0.58735968  0.55541414     0.19310
C598        C  0.01429919  0.59911959  0.57609625     0.24340
C599        C  0.00297567  0.58075145  0.59306242    -0.23650
C600        C  0.48748145  0.55162326  0.58900849     0.19240
F601        F  0.47568290  0.53378685  0.60505292    -0.13610
F602        F  0.47017293  0.51162031  0.56504230    -0.15970
F603        F  0.02904776  0.62753842  0.57965734    -0.15970
F604        F  0.02466701  0.60438389  0.53930227    -0.13610
O605        O  0.53078030  0.46818478  0.52306915    -0.72140
O606        O  0.52846864  0.03419671  0.47750441    -0.73120
O607        O  0.52633823  0.03525849  0.52278600    -0.61740
O608        O  0.53258584  0.46720502  0.47786795    -0.70150
O609        O  0.97919451  0.46562808  0.47626648    -0.69700
O610        O  0.97287402  0.03139748  0.52251117    -0.60960
O611        O  0.97488331  0.03319411  0.47693238    -0.73470
O612        O  0.97743319  0.46442276  0.52158811    -0.72240
Cu613      Cu  0.53136300  0.50131142  0.50033281     1.04560
Cu614      Cu  0.97419279  0.99864596  0.49925057     1.04330
C615        C  0.50447987  0.45724905  0.53035331     0.94060
C616        C  0.00153434  0.04275530  0.46922559     0.93200
C617        C  0.49870914  0.04202357  0.53077719     0.85340
C618        C  0.00690741  0.45701938  0.46912076     0.91610
C619        C  0.50600529  0.50007169  0.75036285    -0.01680
C620        C  0.50664715  0.00161211  0.24931811    -0.01680
N621        N  0.49712197  0.38310454  0.35419225    -0.26490
N622        N  0.51410759  0.40890003  0.35028536    -0.34340
C623        C  0.52075804  0.42378776  0.36852498     0.01850
C624        C  0.50752965  0.40623938  0.38483001     0.07880
C625        C  0.49255953  0.38057039  0.37510811    -0.05220
H626        H  0.53375072  0.44603206  0.36975696     0.08550
H627        H  0.47995726  0.36116912  0.38263128     0.09750
Cu628      Cu  0.52535180  0.42211035  0.31986137     0.44170
Cu629      Cu  0.48431108  0.35270709  0.33001648     0.41990
Cu630      Cu  0.50462458  0.36906514  0.27506713     0.43880
N631        N  0.52099317  0.43699763  0.28895716    -0.33870
N632        N  0.51106507  0.41925049  0.27296897    -0.28130
C633        C  0.50494833  0.43907466  0.25653114    -0.04230
C634        C  0.51073380  0.47084025  0.26260640     0.07990
C635        C  0.52217537  0.46796832  0.28304309     0.01790
H636        H  0.49607676  0.43113855  0.24139539     0.09440
H637        H  0.53007295  0.48708284  0.29328607     0.08520
N638        N  0.49706152  0.32241779  0.28685702    -0.35320
N639        N  0.48776025  0.31839113  0.30658008    -0.27500
C640        C  0.48703679  0.28699484  0.31094872    -0.02740
C641        C  0.49667289  0.26959928  0.29344307     0.05870
C642        C  0.50263831  0.29282565  0.27818135     0.03960
H643        H  0.48195491  0.27767550  0.32645526     0.09070
H644        H  0.51238988  0.28864404  0.26258325     0.07900
O645        O  0.97177517  0.46990502  0.02140597    -0.72140
O646        O  0.54133721  0.47095993  0.97834836    -0.73120
O647        O  0.53911062  0.46978194  0.02388145    -0.61740
O648        O  0.97422305  0.47195832  0.97646910    -0.70150
O649        O  0.97430808  0.02555083  0.97728441    -0.69700
O650        O  0.53811913  0.02340847  0.02455041    -0.60960
O651        O  0.54134320  0.02453621  0.97911477    -0.73470
O652        O  0.97037807  0.02335706  0.02264930    -0.72240
Cu653      Cu  0.50673022  0.46883877  0.00003117     1.04560
Cu654      Cu  0.50602102  0.02610236  0.00099051     1.04330
C655        C  0.96111357  0.49612565  0.02962652     0.94060
C656        C  0.55044777  0.49772115  0.97074922     0.93200
C657        C  0.54731865  0.49637839  0.03238501     0.85340
C658        C  0.96568110  0.49926009  0.96872269     0.91610
N659        N  0.88436761  0.00941484  0.14330565    -0.26490
N660        N  0.91319002  0.99693894  0.14745578    -0.34340
C661        C  0.92889257  0.99121212  0.12934967     0.01850
C662        C  0.90877313  0.00021969  0.11285367     0.07880
C663        C  0.88068258  0.01190482  0.12228508    -0.05220
H664        H  0.95319491  0.98119197  0.12830422     0.08550
H665        H  0.85888465  0.02047573  0.11450312     0.09750
Cu666      Cu  0.92857038  0.98849791  0.17779747     0.44050
Cu667      Cu  0.85233001  0.01840525  0.16752511     0.41990
Cu668      Cu  0.87413024  0.00121033  0.22298240     0.43880
N669        N  0.94348045  0.99080638  0.20865395    -0.33870
N670        N  0.92487563  0.99713746  0.22512316    -0.28130
C671        C  0.94418586  0.00120566  0.24202355    -0.04230
C672        C  0.97643512  0.99791530  0.23574612     0.07990
C673        C  0.97455614  0.99023784  0.21456060     0.01790
H674        H  0.93551063  0.00703971  0.25767217     0.09440
H675        H  0.99422373  0.98476219  0.20388788     0.08520
N676        N  0.82633987  0.00508840  0.21166894    -0.35320
N677        N  0.82006745  0.01278493  0.19183600    -0.27500
C678        C  0.78847155  0.01056139  0.18818120    -0.02740
C679        C  0.77340991  0.00074938  0.20630917     0.05870
C680        C  0.79807707  0.99771756  0.22114020     0.03960
H681        H  0.77759132  0.01373667  0.17280659     0.09070
H682        H  0.79601023  0.98854650  0.23701034     0.07900
N683        N  0.49641519  0.12121620  0.35601715    -0.26490
N684        N  0.48648967  0.09211289  0.35129877    -0.34340
C685        C  0.48384815  0.07497037  0.36912124     0.01850
C686        C  0.49185876  0.09472601  0.38585421     0.07880
C687        C  0.49977857  0.12390566  0.37701437    -0.05220
H688        H  0.47774627  0.04977313  0.36980490     0.08550
H689        H  0.50888960  0.14483040  0.38507590     0.09750
Cu690      Cu  0.48107097  0.07828965  0.32024111     0.44170
Cu691      Cu  0.50701322  0.15316474  0.33251380     0.41990
Cu692      Cu  0.50377328  0.13395022  0.27637217     0.43880
N693        N  0.48878486  0.06501241  0.28925635    -0.33870
N694        N  0.49935799  0.08343215  0.27384570    -0.28130
C695        C  0.50697368  0.06414794  0.25731901    -0.04230
C696        C  0.50148821  0.03209260  0.26274982     0.07990
C697        C  0.48865756  0.03421525  0.28284184     0.01790
H698        H  0.51640700  0.07275315  0.24254292     0.09440
H699        H  0.48026151  0.01472113  0.29250926     0.08520
N700        N  0.50639389  0.18140822  0.28822320    -0.35320
N701        N  0.50905128  0.18641167  0.30872032    -0.27500
C702        C  0.50800131  0.21795313  0.31274565    -0.02740
C703        C  0.50403476  0.23451686  0.29413271     0.05870
C704        C  0.50340922  0.21060284  0.27863924     0.03960
H705        H  0.50819032  0.22793299  0.32849218     0.09070
H706        H  0.49904584  0.21405898  0.26198432     0.07900
N707        N  0.62675251  0.49725252  0.14591623    -0.26490
N708        N  0.60147330  0.51592710  0.15037374    -0.34340
C709        C  0.58476874  0.52170900  0.13260858     0.01850
C710        C  0.60033348  0.50589848  0.11607645     0.07880
C711        C  0.62711796  0.49085602  0.12511332    -0.05220
H712        H  0.56215691  0.53526678  0.13197520     0.08550
H713        H  0.64451837  0.47496102  0.11739983     0.09750
Cu714      Cu  0.58843708  0.52719726  0.18106511     0.44170
Cu715      Cu  0.65757040  0.48095205  0.16929080     0.41990
Cu716      Cu  0.63958226  0.49648584  0.22435813     0.43880
N717        N  0.57228299  0.51895563  0.21138893    -0.33870
N718        N  0.58947949  0.50487694  0.22646928    -0.28130
C719        C  0.56925428  0.49666695  0.24210890    -0.04230
C720        C  0.53770672  0.50564010  0.23652826     0.07990
C721        C  0.54119402  0.52096254  0.21729092     0.01790
H722        H  0.57689093  0.48458048  0.25640962     0.09440
H723        H  0.52232226  0.53198943  0.20777756     0.08520
N724        N  0.68667274  0.48897011  0.21289557    -0.35320
N725        N  0.69160349  0.48095833  0.19296834    -0.27500
C726        C  0.72318772  0.48102834  0.18884461    -0.02740
C727        C  0.73957921  0.49003340  0.20674871     0.05870
C728        C  0.71569658  0.49465482  0.22194152     0.03960
H729        H  0.73315992  0.47795856  0.17320834     0.09070
H730        H  0.71885362  0.50435022  0.23762789     0.07900
N731        N  0.88692743  0.49842881  0.85541771    -0.26490
N732        N  0.91496724  0.48480639  0.85058289    -0.34340
C733        C  0.93254560  0.48105717  0.86822516     0.01850
C734        C  0.91418455  0.49235313  0.88503023     0.07880
C735        C  0.88527123  0.50309973  0.87636228    -0.05220
H736        H  0.95722993  0.47194678  0.86870916     0.08550
H737        H  0.86535550  0.51503911  0.88446796     0.09750
Cu738      Cu  0.92718648  0.47693034  0.81945834     0.44170
Cu739      Cu  0.85542667  0.51145600  0.83181748     0.41990
Cu740      Cu  0.87298896  0.50383968  0.77526180     0.43880
N741        N  0.94116843  0.48589731  0.78889606    -0.33870
N742        N  0.92349510  0.49853414  0.77349738    -0.28130
C743        C  0.94353529  0.50643817  0.75761442    -0.04230
C744        C  0.97526804  0.49903020  0.76357117     0.07990
C745        C  0.97213996  0.48453773  0.78305086     0.01790
H746        H  0.93569012  0.51666063  0.74275260     0.09440
H747        H  0.99109456  0.47381706  0.79263744     0.08520
N748        N  0.82611137  0.50741779  0.78770730    -0.35320
N749        N  0.82180640  0.51223292  0.80811283    -0.27500
C750        C  0.79049721  0.51175074  0.81262065    -0.02740
C751        C  0.77339500  0.50576982  0.79448566     0.05870
C752        C  0.79669152  0.50343009  0.77869833     0.03960
H753        H  0.78124778  0.51367251  0.82849414     0.09070
H754        H  0.79277295  0.49744418  0.76231083     0.07900
N755        N  0.49627759  0.38055493  0.64380781    -0.26490
N756        N  0.48887326  0.41072209  0.64848107    -0.34340
C757        C  0.48764737  0.42807444  0.63065322     0.01850
C758        C  0.49394564  0.40730259  0.61395956     0.07880
C759        C  0.49931957  0.37729066  0.62283780    -0.05220
H760        H  0.48368113  0.45393127  0.62993212     0.08550
H761        H  0.50670017  0.35527078  0.61483142     0.09750
Cu762      Cu  0.48514075  0.42396330  0.67970510     0.44170
Cu763      Cu  0.50481661  0.34876095  0.66779925     0.41990
Cu764      Cu  0.50768303  0.36738714  0.72455807     0.43880
N765        N  0.49356280  0.43641620  0.71063018    -0.33870
N766        N  0.50446604  0.41812092  0.72626673    -0.28130
C767        C  0.51154934  0.43767848  0.74264408    -0.04230
C768        C  0.50533309  0.46964273  0.73679298     0.07990
C769        C  0.49246110  0.46721667  0.71677262     0.01790
H770        H  0.52019442  0.42934717  0.75781638     0.09440
H771        H  0.48265532  0.48646268  0.70707327     0.08520
N772        N  0.50698579  0.32025553  0.71221926    -0.35320
N773        N  0.50705289  0.31580755  0.69160063    -0.27500
C774        C  0.50528216  0.28460639  0.68719890    -0.02740
C775        C  0.50361142  0.26752526  0.70567510     0.05870
C776        C  0.50498624  0.29085772  0.72152206     0.03960
H777        H  0.50424896  0.27541768  0.67128553     0.09070
H778        H  0.50353874  0.28690035  0.73832892     0.07900
N779        N  0.50446947  0.11834991  0.64482316    -0.26490
N780        N  0.51729313  0.08987103  0.64930328    -0.34340
C781        C  0.51952930  0.07231338  0.63152662     0.01850
C782        C  0.50801803  0.09115037  0.61500885     0.07880
C783        C  0.49880292  0.12032198  0.62400620    -0.05220
H784        H  0.52792865  0.04743425  0.63076054     0.08550
H785        H  0.48730250  0.14074377  0.61622458     0.09750
Cu786      Cu  0.52640685  0.07773596  0.68033965     0.44170
Cu787      Cu  0.49385773  0.15000753  0.66877982     0.41990
Cu788      Cu  0.50181577  0.13278608  0.72524381     0.43880
N789        N  0.51908067  0.06447306  0.71128582    -0.33870
N790        N  0.50715134  0.08231002  0.72687795    -0.28130
C791        C  0.49994789  0.06247159  0.74299674    -0.04230
C792        C  0.50711658  0.03071613  0.73703972     0.07990
C793        C  0.52074374  0.03361655  0.71725614     0.01790
H794        H  0.49027004  0.07046401  0.75799683     0.09440
H795        H  0.53102650  0.01459598  0.70751961     0.08520
N796        N  0.49829126  0.17960983  0.71283560    -0.35320
N797        N  0.49373065  0.18367040  0.69240324    -0.27500
C798        C  0.49368539  0.21488192  0.68781313    -0.02740
C799        C  0.49890483  0.23229386  0.70593659     0.05870
C800        C  0.50152296  0.20917637  0.72179932     0.03960
H801        H  0.49148170  0.22385085  0.67190610     0.09070
H802        H  0.50672122  0.21338645  0.73826888     0.07900
N803        N  0.62589631  0.50460338  0.85676532    -0.26490
N804        N  0.59631853  0.51458472  0.85226546    -0.34340
C805        C  0.57920429  0.51704060  0.87018548     0.01850
C806        C  0.59951808  0.50886102  0.88677624     0.07880
C807        C  0.62899927  0.50108210  0.87771653    -0.05220
H808        H  0.55367728  0.52307182  0.87102978     0.08550
H809        H  0.65043201  0.49178922  0.88559211     0.09750
Cu810      Cu  0.58268318  0.51994039  0.82117785     0.44170
Cu811      Cu  0.65739432  0.49404752  0.83273961     0.41990
Cu812      Cu  0.63855790  0.49791834  0.77616813     0.43880
N813        N  0.56959727  0.51208334  0.79025872    -0.33870
N814        N  0.58789763  0.50161314  0.77447253    -0.28130
C815        C  0.56836998  0.49485015  0.75804017    -0.04230
C816        C  0.53637527  0.50082337  0.76397523     0.07990
C817        C  0.53871284  0.51311126  0.78418151     0.01790
H818        H  0.57674126  0.48647179  0.74279906     0.09440
H819        H  0.51936784  0.52242973  0.79403372     0.08520
N820        N  0.68573913  0.49615542  0.78833512    -0.35320
N821        N  0.69047822  0.49298741  0.80882441    -0.27500
C822        C  0.72182798  0.49423258  0.81310473    -0.02740
C823        C  0.73854091  0.49897158  0.79470491     0.05870
C824        C  0.71495568  0.49978060  0.77901728     0.03960
H825        H  0.73137428  0.49345034  0.82894552     0.09070
H826        H  0.71854526  0.50437293  0.76242505     0.07900
C827        C  0.96599112  0.01480996  0.93127814     0.24400
C828        C  0.94961257  0.50053215  0.94812427    -0.23710
C829        C  0.92029424  0.48517602  0.94436656     0.19310
C830        C  0.90776377  0.48374119  0.92385093     0.24340
C831        C  0.92520451  0.49646508  0.90690044    -0.23650
C832        C  0.95413456  0.01240280  0.91080332     0.19240
F833        F  0.97100649  0.02555990  0.89476115    -0.13610
F834        F  0.99449157  0.02964211  0.93455108    -0.15970
F835        F  0.87945980  0.46869196  0.92039071    -0.15970
F836        F  0.90406169  0.47148055  0.96047821    -0.13610
C837        C  0.92108803  0.02057503  0.05530334     0.24400
C838        C  0.94103506  0.99446296  0.04884553    -0.23710
C839        C  0.94590288  0.46827984  0.06271821     0.19310
C840        C  0.93407262  0.46974290  0.08321357     0.24340
C841        C  0.91630286  0.99688531  0.09020352    -0.23650
C842        C  0.90841542  0.02157044  0.07579640     0.19240
F843        F  0.89044260  0.04768823  0.08195337    -0.13610
F844        F  0.91484668  0.04561343  0.04207170    -0.15970
F845        F  0.94111317  0.44492056  0.09648107    -0.15970
F846        F  0.96499228  0.44252959  0.05726705    -0.13610
C847        C  0.60317621  0.02253615  0.92509008     0.24400
C848        C  0.59005281  0.50393102  0.90881766    -0.23710
C849        C  0.56661533  0.48121142  0.91351896     0.19310
C850        C  0.55568158  0.47772387  0.93412126     0.24340
C851        C  0.56741158  0.49755419  0.95034718    -0.23650
C852        C  0.59143169  0.01982916  0.94571995     0.19240
F853        F  0.60307073  0.03925375  0.96106166    -0.13610
F854        F  0.62617362  0.04439052  0.92079744    -0.15970
F855        F  0.53175704  0.45659571  0.93787598    -0.15970
F856        F  0.55387066  0.46275031  0.89802530    -0.13610
C857        C  0.55460317  0.49849206  0.09113942     0.24400
C858        C  0.58792674  0.50185444  0.09435792    -0.23710
C859        C  0.60864790  0.00145939  0.07670416     0.19310
C860        C  0.59593764  0.99890096  0.05621256     0.24340
C861        C  0.56258174  0.49624023  0.05328957    -0.23650
C862        C  0.54218731  0.49594675  0.07086273     0.19240
F863        F  0.50981636  0.49410091  0.06834062    -0.13610
F864        F  0.53385750  0.49718436  0.10764516    -0.15970
F865        F  0.61601293  0.99966646  0.03934916    -0.15970
F866        F  0.64095155  0.00477014  0.07925892    -0.13610
C867        C  0.53664064  0.42838958  0.41593700     0.24400
C868        C  0.50893480  0.41415749  0.40756997    -0.23710
C869        C  0.98218084  0.40961773  0.42078904     0.19310
C870        C  0.98223690  0.42152603  0.44147061     0.24340
C871        C  0.50917998  0.43792448  0.44935467    -0.23650
C872        C  0.53685616  0.44001973  0.43657850     0.19240
F873        F  0.56356923  0.45527448  0.44346450    -0.13610
F874        F  0.56350159  0.43169621  0.40396316    -0.15970
F875        F  0.95540605  0.41812589  0.45346908    -0.15970
F876        F  0.95512000  0.39562293  0.41333647    -0.13610
C877        C  0.98099461  0.41724102  0.55542060     0.24400
C878        C  0.50502803  0.43952831  0.55049703    -0.23710
C879        C  0.52693452  0.44877724  0.56629438     0.19310
C880        C  0.52365509  0.43755218  0.58684125     0.24340
C881        C  0.49896888  0.41638318  0.59189553    -0.23650
C882        C  0.97828893  0.40536561  0.57597350     0.19240
F883        F  0.95450323  0.38452664  0.58060806    -0.13610
F884        F  0.95967053  0.40771340  0.54051899    -0.15970
F885        F  0.54417915  0.44795223  0.60198070    -0.15970
F886        F  0.55005393  0.47066560  0.56229955    -0.13610
C887        C  0.52096413  0.06246405  0.41294591     0.24400
C888        C  0.49634163  0.08481459  0.40787334    -0.23710
C889        C  0.97522685  0.09615344  0.42369421     0.19310
C890        C  0.97749229  0.08359550  0.44414817     0.24340
C891        C  0.50161505  0.06040765  0.44907684    -0.23650
C892        C  0.52385363  0.05063135  0.43341356     0.19240
F893        F  0.54702837  0.02780046  0.43750359    -0.13610
F894        F  0.54178171  0.05150517  0.39789690    -0.15970
F895        F  0.95587353  0.09357889  0.45897459    -0.15970
F896        F  0.95152814  0.11814066  0.41903960    -0.13610
C897        C  0.98411291  0.04053595  0.56837701     0.24400
C898        C  0.49703606  0.05787727  0.55148413    -0.23710
C899        C  0.51193966  0.08737552  0.55540000     0.19310
C900        C  0.51425808  0.09914188  0.57608118     0.24340
C901        C  0.50294812  0.08077183  0.59305051    -0.23650
C902        C  0.98741882  0.05166131  0.58898922     0.19240
F903        F  0.97562731  0.03382999  0.60503840    -0.13610
F904        F  0.97011577  0.01164274  0.56503237    -0.15970
F905        F  0.52899102  0.12757020  0.57963818    -0.15970
F906        F  0.52461417  0.10440392  0.53928530    -0.13610
O907        O  0.53074219  0.96819280  0.52305749    -0.72140
O908        O  0.52850452  0.53419809  0.47752651    -0.73120
O909        O  0.52637997  0.53524835  0.52280507    -0.61740
O910        O  0.53255896  0.96720426  0.47785383    -0.70150
O911        O  0.97915790  0.96562618  0.47626212    -0.69700
O912        O  0.97291731  0.53139515  0.52251895    -0.60960
O913        O  0.97492672  0.53319609  0.47694050    -0.73470
O914        O  0.97739919  0.96442405  0.52158339    -0.72240
Cu915      Cu  0.53132732  0.00131568  0.50031652     1.04560
Cu916      Cu  0.97423248  0.49864613  0.49925668     1.04330
C917        C  0.50444090  0.95725207  0.53033757     0.94060
C918        C  0.00157794  0.54275541  0.46923311     0.93200
C919        C  0.49875160  0.54201588  0.53079637     0.85340
C920        C  0.00687147  0.95702027  0.46911628     0.91610
C921        C  0.50602274  0.00008095  0.75033004    -0.01680
C922        C  0.50668290  0.50161962  0.24938022    -0.01680
N923        N  0.49710367  0.88314399  0.35416238    -0.26490
N924        N  0.51409489  0.90893556  0.35025489    -0.34340
C925        C  0.52075827  0.92381478  0.36849647     0.01850
C926        C  0.50752924  0.90626523  0.38480187     0.07880
C927        C  0.49254909  0.88060416  0.37507836    -0.05220
H928        H  0.53375587  0.94605598  0.36972994     0.08550
H929        H  0.47994150  0.86120541  0.38260039     0.09750
Cu930      Cu  0.52531475  0.92214544  0.31982317     0.44170
Cu931      Cu  0.48426833  0.85275575  0.32998842     0.41990
Cu932      Cu  0.50456126  0.86907319  0.27503566     0.43880
N933        N  0.52094466  0.93700877  0.28891080    -0.33870
N934        N  0.51100511  0.91925560  0.27292828    -0.28130
C935        C  0.50488877  0.93907099  0.25648543    -0.04230
C936        C  0.51068920  0.97083738  0.26255036     0.07990
C937        C  0.52213785  0.96797391  0.28298643     0.01790
H938        H  0.49601023  0.93112831  0.24135289     0.09440
H939        H  0.53004764  0.98709206  0.29322228     0.08520
N940        N  0.49700238  0.82243441  0.28683825    -0.35320
N941        N  0.48770466  0.81842287  0.30656324    -0.27500
C942        C  0.48698333  0.78703032  0.31094269    -0.02740
C943        C  0.49661800  0.76962166  0.29344228     0.05870
C944        C  0.50257970  0.79283599  0.27817210     0.03960
H945        H  0.48190567  0.77772343  0.32645306     0.09070
H946        H  0.51232963  0.78864265  0.26257481     0.07900
O947        O  0.97174795  0.96990294  0.02137447    -0.72140
O948        O  0.54126009  0.97097716  0.97833049    -0.73120
O949        O  0.53904377  0.96980435  0.02386211    -0.61740
O950        O  0.97421869  0.97195518  0.97643843    -0.70150
O951        O  0.97432300  0.52555388  0.97731301    -0.69700
O952        O  0.53820251  0.52338595  0.02456582    -0.60960
O953        O  0.54142239  0.52451952  0.97913280    -0.73470
O954        O  0.97040930  0.52335920  0.02267811    -0.72240
Cu955      Cu  0.50665729  0.96885702  0.00001737     1.04560
Cu956      Cu  0.50610386  0.52608459  0.00100604     1.04330
C957        C  0.96108491  0.99612156  0.02959633     0.94060
C958        C  0.55037159  0.99773799  0.97073120     0.93200
C959        C  0.54724527  0.99640179  0.03236643     0.85340
C960        C  0.96567394  0.99925635  0.96869183     0.91610
N961        N  0.88428666  0.50940485  0.14330802    -0.26490
N962        N  0.91311578  0.49695256  0.14746711    -0.34340
C963        C  0.92883537  0.49123609  0.12936646     0.01850
C964        C  0.90872157  0.50022592  0.11286440     0.07880
C965        C  0.88061447  0.51188942  0.12228601    -0.05220
H966        H  0.95314627  0.48123611  0.12832871     0.08550
H967        H  0.85881705  0.52044521  0.11449648     0.09750
Cu968      Cu  0.92849361  0.48853200  0.17781101     0.44050
Cu969      Cu  0.85223941  0.51838682  0.16752219     0.41990
Cu970      Cu  0.87409074  0.50121630  0.22299369     0.43880
N971        N  0.94343654  0.49083078  0.20866038    -0.33870
N972        N  0.92484184  0.49715142  0.22513547    -0.28130
C973        C  0.94416498  0.50120860  0.24203179    -0.04230
C974        C  0.97641258  0.49792126  0.23574502     0.07990
C975        C  0.97451696  0.49025792  0.21455780     0.01790
H976        H  0.93550037  0.50703163  0.25768460     0.09440
H977        H  0.99417546  0.48478351  0.20387814     0.08520
N978        N  0.82629406  0.50508105  0.21168097    -0.35320
N979        N  0.82000618  0.51277418  0.19184894    -0.27500
C980        C  0.78840964  0.51053827  0.18820164    -0.02740
C981        C  0.77336443  0.50071757  0.20633231     0.05870
C982        C  0.79803969  0.49769762  0.22115809     0.03960
H983        H  0.77751983  0.51370389  0.17282894     0.09070
H984        H  0.79598527  0.48852234  0.23702792     0.07900
N985        N  0.49641897  0.62126173  0.35605562    -0.26490
N986        N  0.48650863  0.59215172  0.35134075    -0.34340
C987        C  0.48388733  0.57500775  0.36916336     0.01850
C988        C  0.49189597  0.59476848  0.38589316     0.07880
C989        C  0.49979288  0.62395371  0.37705194    -0.05220
H990        H  0.47779954  0.54980691  0.36984882     0.08550
H991        H  0.50889398  0.64488482  0.38511137     0.09750
Cu992      Cu  0.48108270  0.57831666  0.32028901     0.44170
Cu993      Cu  0.50698336  0.65321378  0.33254782     0.41990
Cu994      Cu  0.50375440  0.63396344  0.27641046     0.43880
N995        N  0.48880085  0.56502356  0.28931061    -0.33870
N996        N  0.49935728  0.58344280  0.27389489    -0.28130
C997        C  0.50697537  0.56415570  0.25737088    -0.04230
C998        C  0.50151129  0.53209919  0.26280933     0.07990
C999        C  0.48869074  0.53422218  0.28290351     0.01790
H1000       H  0.51639686  0.57276050  0.24259151     0.09440
H1001       H  0.48030985  0.51472764  0.29257632     0.08520
N1002       N  0.50635754  0.68142903  0.28824923    -0.35320
N1003       N  0.50900633  0.68644665  0.30874537    -0.27500
C1004       C  0.50794583  0.71799049  0.31276178    -0.02740
C1005       C  0.50398210  0.73454067  0.29414349     0.05870
C1006       C  0.50336892  0.71061645  0.27865659     0.03960
H1007       H  0.50812929  0.72798080  0.32850554     0.09070
H1008       H  0.49901284  0.71406052  0.26199982     0.07900
N1009       N  0.62677064  0.99727977  0.14587574    -0.26490
N1010       N  0.60148343  0.01593852  0.15033970    -0.34340
C1011       C  0.58475485  0.02169823  0.13258211     0.01850
C1012       C  0.60030785  0.00588465  0.11604691     0.07880
C1013       C  0.62711518  0.99086769  0.12507463    -0.05220
H1014       H  0.56213773  0.03524737  0.13195749     0.08550
H1015       H  0.64451971  0.97498170  0.11735732     0.09750
Cu1016     Cu  0.58845864  0.02720324  0.18103059     0.44170
Cu1017     Cu  0.65761809  0.98102559  0.16924618     0.41990
Cu1018     Cu  0.63959148  0.99652155  0.22432609     0.43880
N1019       N  0.57227484  0.01893561  0.21134119    -0.33870
N1020       N  0.58946834  0.00487542  0.22643005    -0.28130
C1021       C  0.56923007  0.99666529  0.24206408    -0.04230
C1022       C  0.53767878  0.00561430  0.23646792     0.07990
C1023       C  0.54117764  0.02092400  0.21722799     0.01790
H1024       H  0.57685992  0.98459909  0.25637351     0.09440
H1025       H  0.52231220  0.03194417  0.20770653     0.08520
N1026       N  0.68669946  0.98903656  0.21286140    -0.35320
N1027       N  0.69163681  0.98104236  0.19293143    -0.27500
C1028       C  0.72322195  0.98111008  0.18881091    -0.02740
C1029       C  0.73961251  0.99009403  0.20671923     0.05870
C1030       C  0.71572523  0.99470638  0.22191206     0.03960
H1031       H  0.73319739  0.97804279  0.17317527     0.09070
H1032       H  0.71888279  0.00437726  0.23760484     0.07900
N1033       N  0.88692955  0.99846040  0.85538353    -0.26490
N1034       N  0.91496279  0.98482222  0.85055072    -0.34340
C1035       C  0.93253743  0.98106648  0.86819398     0.01850
C1036       C  0.91418000  0.99237401  0.88499745     0.07880
C1037       C  0.88527320  0.00313484  0.87632772    -0.05220
H1038       H  0.95721690  0.97194248  0.86867981     0.08550
H1039       H  0.86536201  0.01508443  0.88443196     0.09750
Cu1040     Cu  0.92717989  0.97693147  0.81942732     0.44170
Cu1041     Cu  0.85543611  0.01149648  0.83178196     0.41990
Cu1042     Cu  0.87299244  0.00385239  0.77522918     0.43880
N1043       N  0.94116841  0.98589729  0.78886634    -0.33870
N1044       N  0.92350039  0.99854262  0.77346803    -0.28130
C1045       C  0.94354639  0.00645005  0.75758877    -0.04230
C1046       C  0.97527724  0.99903546  0.76354786     0.07990
C1047       C  0.97214126  0.98453427  0.78302409     0.01790
H1048       H  0.93570653  0.01667899  0.74272767     0.09440
H1049       H  0.99109139  0.97380554  0.79261064     0.08520
N1050       N  0.82611378  0.00743278  0.78767594    -0.35320
N1051       N  0.82181219  0.01225969  0.80808059    -0.27500
C1052       C  0.79050440  0.01177493  0.81259211    -0.02740
C1053       C  0.77339880  0.00578053  0.79446081     0.05870
C1054       C  0.79669212  0.00343515  0.77867127     0.03960
H1055       H  0.78125859  0.01370405  0.82846617     0.09070
H1056       H  0.79277037  0.99743874  0.76228572     0.07900
N1057       N  0.49616031  0.88054857  0.64378880    -0.26490
N1058       N  0.48879075  0.91072279  0.64846267    -0.34340
C1059       C  0.48758554  0.92807724  0.63063543     0.01850
C1060       C  0.49386275  0.90730041  0.61394091     0.07880
C1061       C  0.49920098  0.87728200  0.62281869    -0.05220
H1062       H  0.48365241  0.95393836  0.62991550     0.08550
H1063       H  0.50656205  0.85525585  0.61481241     0.09750
Cu1064     Cu  0.48509426  0.92396320  0.67968840     0.44170
Cu1065     Cu  0.50467741  0.84875866  0.66778489     0.41990
Cu1066     Cu  0.50770201  0.86739485  0.72454158     0.43880
N1067       N  0.49355986  0.93641904  0.71060767    -0.33870
N1068       N  0.50448580  0.91812866  0.72624034    -0.28130
C1069       C  0.51158627  0.93769067  0.74261180    -0.04230
C1070       C  0.50535872  0.96965263  0.73676053     0.07990
C1071       C  0.49246098  0.96722051  0.71674780     0.01790
H1072       H  0.52024595  0.92936341  0.75778157     0.09440
H1073       H  0.48263751  0.98646340  0.70705298     0.08520
N1074       N  0.50696716  0.82026221  0.71220906    -0.35320
N1075       N  0.50695948  0.81581573  0.69159054    -0.27500
C1076       C  0.50519683  0.78461438  0.68719171    -0.02740
C1077       C  0.50361658  0.76752768  0.70567020     0.05870
C1078       C  0.50502783  0.79086096  0.72151518     0.03960
H1079       H  0.50412213  0.77543004  0.67127903     0.09070
H1080       H  0.50366569  0.78689908  0.73832488     0.07900
N1081       N  0.50457473  0.61830662  0.64484496    -0.26490
N1082       N  0.51734483  0.58980777  0.64933003    -0.34340
C1083       C  0.51955075  0.57224086  0.63155592     0.01850
C1084       C  0.50807518  0.59109455  0.61503549     0.07880
C1085       C  0.49891323  0.62028424  0.62402835    -0.05220
H1086       H  0.52790875  0.54734854  0.63079297     0.08550
H1087       H  0.48745317  0.64072552  0.61624399     0.09750
Cu1088     Cu  0.52643047  0.57769141  0.68037230     0.44170
Cu1089     Cu  0.49402168  0.64997570  0.66879909     0.41990
Cu1090     Cu  0.50181333  0.63277979  0.72527355     0.43880
N1091       N  0.51908479  0.56445924  0.71132158    -0.33870
N1092       N  0.50713735  0.58229944  0.72690690    -0.28130
C1093       C  0.49992047  0.56246256  0.74302421    -0.04230
C1094       C  0.50709920  0.53070632  0.73707239     0.07990
C1095       C  0.52074925  0.53360554  0.71729621     0.01790
H1096       H  0.49023020  0.57045683  0.75802057     0.09440
H1097       H  0.53104709  0.51458463  0.70756645     0.08520
N1098       N  0.49836597  0.67960228  0.71285268    -0.35320
N1099       N  0.49389069  0.68364599  0.69241152    -0.27500
C1100       C  0.49386506  0.71485070  0.68780924    -0.02740
C1101       C  0.49899719  0.73228227  0.70593522     0.05870
C1102       C  0.50155448  0.70917900  0.72181157     0.03960
H1103       H  0.49171027  0.72379974  0.67189526     0.09070
H1104       H  0.50665800  0.71340765  0.73829184     0.07900
N1105       N  0.62588815  0.00460266  0.85675649    -0.26490
N1106       N  0.59630679  0.01456737  0.85225128    -0.34340
C1107       C  0.57918374  0.01701603  0.87016821     0.01850
C1108       C  0.59949346  0.00884873  0.88676359     0.07880
C1109       C  0.62898313  0.00108480  0.87770900    -0.05220
H1110       H  0.55365407  0.02303661  0.87100752     0.08550
H1111       H  0.65041791  0.99180653  0.88558918     0.09750
Cu1112     Cu  0.58267869  0.01991909  0.82116147     0.44170
Cu1113     Cu  0.65740305  0.99406699  0.83273307     0.41990
Cu1114     Cu  0.63856325  0.99792326  0.77615505     0.43880
N1115       N  0.56959956  0.01207867  0.79023885    -0.33870
N1116       N  0.58790547  0.00161954  0.77445244    -0.28130
C1117       C  0.56838449  0.99486686  0.75801501    -0.04230
C1118       C  0.53638791  0.00083544  0.76394661     0.07990
C1119       C  0.53871715  0.01310921  0.78415709     0.01790
H1120       H  0.57676153  0.98649662  0.74277336     0.09440
H1121       H  0.51936802  0.02241894  0.79400920     0.08520
N1122       N  0.68574217  0.99616248  0.78832325    -0.35320
N1123       N  0.69048494  0.99300274  0.80881296    -0.27500
C1124       C  0.72183652  0.99424802  0.81308917    -0.02740
C1125       C  0.73854526  0.99897914  0.79468627     0.05870
C1126       C  0.71495628  0.99978287  0.77900152     0.03960
H1127       H  0.73138750  0.99347141  0.82892882     0.09070
H1128       H  0.71854158  0.00436922  0.76240812     0.07900
C1129       C  0.96599191  0.51481066  0.93130873     0.24400
C1130       C  0.94960934  0.00052951  0.94809199    -0.23710
C1131       C  0.92028684  0.98518187  0.94433275     0.19310
C1132       C  0.90775571  0.98375550  0.92381697     0.24340
C1133       C  0.92519915  0.99648027  0.90686805    -0.23650
C1134       C  0.95413680  0.51239437  0.91083406     0.19240
F1135       F  0.97100749  0.52554907  0.89479049    -0.13610
F1136       F  0.99449007  0.52964796  0.93457982    -0.15970
F1137       F  0.87944778  0.96871441  0.92035494    -0.15970
F1138       F  0.90405005  0.97148795  0.96044309    -0.13610
C1139       C  0.92110523  0.52058885  0.05532290     0.24400
C1140       C  0.94105388  0.49447326  0.04887203    -0.23710
C1141       C  0.94590267  0.96827129  0.06269084     0.19310
C1142       C  0.93409279  0.96973368  0.08319120     0.24340
C1143       C  0.91627504  0.49689416  0.09021811    -0.23650
C1144       C  0.90840860  0.52158293  0.07580968     0.19240
F1145       F  0.89043310  0.54770234  0.08196072    -0.13610
F1146       F  0.91488297  0.54563056  0.04209047    -0.15970
F1147       F  0.94114616  0.94491011  0.09645497    -0.15970
F1148       F  0.96499363  0.94252528  0.05723346    -0.13610
C1149       C  0.60322928  0.52252714  0.92510289     0.24400
C1150       C  0.59001915  0.00392476  0.90880526    -0.23710
C1151       C  0.56658585  0.98120035  0.91350622     0.19310
C1152       C  0.55563742  0.97772269  0.93410649     0.24340
C1153       C  0.56734645  0.99756871  0.95033117    -0.23650
C1154       C  0.59149997  0.51981020  0.94573522     0.19240
F1155       F  0.60315493  0.53922220  0.96107852    -0.13610
F1156       F  0.62623091  0.54437647  0.92080886    -0.15970
F1157       F  0.53171932  0.95658664  0.93785937    -0.15970
F1158       F  0.55385892  0.96272468  0.89801366    -0.13610
C1159       C  0.55455149  0.99854032  0.09111836     0.24400
C1160       C  0.58788508  0.00184092  0.09433161    -0.23710
C1161       C  0.60869555  0.50152290  0.07673391     0.19310
C1162       C  0.59599782  0.49895108  0.05623939     0.24340
C1163       C  0.56251326  0.99626294  0.05326850    -0.23650
C1164       C  0.54212207  0.99601844  0.07084401     0.19240
F1165       F  0.50974388  0.99423463  0.06832669    -0.13610
F1166       F  0.53380724  0.99726800  0.10762635    -0.15970
F1167       F  0.61607557  0.49977137  0.03937905    -0.15970
F1168       F  0.64099008  0.50489614  0.07929576    -0.13610
C1169       C  0.53663500  0.92839957  0.41591829     0.24400
C1170       C  0.50892861  0.91417890  0.40754349    -0.23710
C1171       C  0.98214861  0.90961641  0.42078521     0.19310
C1172       C  0.98220203  0.92152658  0.44146619     0.24340
C1173       C  0.50916250  0.93792829  0.44933388    -0.23650
C1174       C  0.53684561  0.94001939  0.43656308     0.19240
F1175       F  0.56356210  0.95525887  0.44345831    -0.13610
F1176       F  0.56350157  0.93170311  0.40394942    -0.15970
F1177       F  0.95536779  0.91813173  0.45346220    -0.15970
F1178       F  0.95508689  0.89562573  0.41333057    -0.13610
C1179       C  0.98097012  0.91723889  0.55541342     0.24400
C1180       C  0.50498315  0.93952936  0.55048096    -0.23710
C1181       C  0.52687199  0.94878876  0.56628583     0.19310
C1182       C  0.52358189  0.93756138  0.58683150     0.24340
C1183       C  0.49890253  0.91637932  0.59187754    -0.23650
C1184       C  0.97827664  0.90535541  0.57596501     0.19240
F1185       F  0.95448832  0.88452146  0.58060355    -0.13610
F1186       F  0.95963291  0.90772245  0.54051672    -0.15970
F1187       F  0.54408922  0.94797131  0.60197769    -0.15970
F1188       F  0.54998249  0.97068981  0.56229907    -0.13610
C1189       C  0.52101792  0.56251729  0.41298102     0.24400
C1190       C  0.49638628  0.58485879  0.40791081    -0.23710
C1191       C  0.97524807  0.59614240  0.42370164     0.19310
C1192       C  0.97752250  0.58358866  0.44415636     0.24340
C1193       C  0.50165295  0.56042642  0.44910657    -0.23650
C1194       C  0.52390393  0.55067171  0.43344529     0.19240
F1195       F  0.54708636  0.52784728  0.43753250    -0.13610
F1196       F  0.54184466  0.55157591  0.39793210    -0.15970
F1197       F  0.95590009  0.59356337  0.45898294    -0.15970
F1198       F  0.95153756  0.61811692  0.41904703    -0.13610
C1199       C  0.98415384  0.54052319  0.56838497     0.24400
C1200       C  0.49708056  0.55786120  0.55150493    -0.23710
C1201       C  0.51200102  0.58734803  0.55542762     0.19310
C1202       C  0.51432444  0.59910138  0.57611110     0.24340
C1203       C  0.50300207  0.58072864  0.59307562    -0.23650
C1204       C  0.98745714  0.55164397  0.58899844     0.19240
F1205       F  0.97565960  0.53381110  0.60504492    -0.13610
F1206       F  0.97015317  0.51163274  0.56503677    -0.15970
F1207       F  0.52907437  0.62751874  0.57967481    -0.15970
F1208       F  0.52468780  0.60437698  0.53931738    -0.13610
loop_ 
_geom_bond_atom_site_label_1 
_geom_bond_atom_site_label_2 
_geom_bond_distance 
_geom_bond_site_symmetry_2 
_ccdc_geom_bond_type 
O1           Cu9   1.996       .  S
O1           C11   1.277       .  A
O2         Cu311   1.993       .  S
O2          C616   1.276       .  A
O3         Cu311   2.009       .  S
O3           C13   1.277   1_455  A
O4           Cu9   2.006       .  S
O4          C618   1.278       .  A
O5         Cu312   2.006       .  S
O5           C14   1.278       .  A
O6          Cu10   2.004   1_545  S
O6          C617   1.277       .  A
O7          Cu10   2.018   1_545  S
O7           C12   1.279       .  A
O8         Cu312   2.011       .  S
O8          C615   1.278       .  A
Cu9         O304   1.993       .  S
Cu9         O305   2.009       .  S
Cu9        Cu916   2.371   1_455  S
Cu10        O307   2.006       .  S
Cu10        O310   2.011       .  S
Cu10       Cu915   2.371   1_565  S
C11         O612   1.278   1_455  A
C11         C274   1.477       .  S
C12         O606   1.276       .  A
C12         C891   1.475       .  S
C13         O610   1.277       .  A
C13         C294   1.469       .  S
C14         O608   1.278       .  A
C14         C871   1.484       .  S
C15         C164   1.527       .  S
C15         C212   1.526       .  S
C15         C744   1.527   1_455  S
C15         C490   1.528       .  S
C16          C92   1.534       .  S
C16         C332   1.536   1_545  S
C16         C672   1.533   1_445  S
C16         C418   1.535       .  S
N17          N18   1.317   1_655  A
N17          C21   1.346       .  A
N17         Cu25   2.060       .  S
N18          C19   1.342       .  A
N18         Cu24   2.066       .  S
C19          C20   1.387       .  A
C19          H22   1.081       .  S
C20         C264   1.481       .  S
C20          C21   1.387   1_455  A
C21          H23   1.081       .  S
Cu24         N27   2.065       .  S
Cu25         N35   2.059       .  S
Cu26         N28   2.108       .  S
Cu26         N34   2.106   1_455  S
N27          N28   1.323       .  A
N27          C31   1.341       .  A
N28          C29   1.351       .  A
C29          C30   1.397       .  A
C29          H32   1.082   1_455  S
C30         C318   1.536       .  S
C30          C31   1.386       .  A
C31          H33   1.080       .  S
N34          N35   1.323       .  A
N34          C38   1.359   1_655  A
N35          C36   1.333       .  A
C36          C37   1.378       .  A
C36          H39   1.081       .  S
C37          C99   1.480   1_655  S
C37          C38   1.394   1_655  A
C38          H40   1.082       .  S
O41        Cu653   1.985       .  S
O41          C51   1.275       .  A
O42         Cu49   1.992   1_556  S
O42          C52   1.276       .  A
O43         Cu49   2.023       .  S
O43          C53   1.279       .  A
O44        Cu653   2.013   1_556  S
O44          C54   1.278       .  A
O45        Cu654   1.997   1_556  S
O45         C356   1.276   1_545  A
O46         Cu50   2.002       .  S
O46         C355   1.276   1_545  A
O47         Cu50   2.018   1_556  S
O47         C354   1.279   1_545  A
O48        Cu654   2.026       .  S
O48         C353   1.281   1_545  A
Cu49        O645   1.985   1_455  S
Cu49        O648   2.013   1_454  S
Cu49       Cu352   2.374       .  S
Cu50        O649   1.997   1_454  S
Cu50        O652   2.026   1_455  S
Cu50       Cu351   2.374   1_544  S
C51         O350   1.281       .  A
C51         C536   1.481       .  S
C52         O349   1.279       .  A
C52         C247   1.474       .  S
C53         O348   1.276       .  A
C53         C257   1.470       .  S
C54         O347   1.276       .  A
C54         C224   1.467       .  S
N55          N56   1.317   1_545  A
N55          C59   1.347       .  A
N55         Cu63   2.060       .  S
N56          C57   1.339       .  A
N56         Cu62   2.057       .  S
C57          C58   1.385   1_565  A
C57          H60   1.082       .  S
C58         C237   1.478   1_545  S
C58          C59   1.386       .  A
C59          H61   1.082       .  S
Cu62         N65   2.057       .  S
Cu63         N73   2.060       .  S
Cu64         N66   2.109   1_545  S
Cu64         N72   2.108       .  S
N65          N66   1.322       .  A
N65          C69   1.340       .  A
N66          C67   1.350   1_565  A
C67          C68   1.398   1_545  A
C67          H70   1.082       .  S
C68         C620   1.533   1_565  S
C68          C69   1.384       .  A
C69          H71   1.080       .  S
N72          N73   1.324       .  A
N72          C76   1.358   1_545  A
N73          C74   1.334       .  A
C74          C75   1.376       .  A
C74          H77   1.082       .  S
C75         C425   1.477   1_545  S
C75          C76   1.392   1_545  A
C76          H78   1.082       .  S
N79          N80   1.317       .  A
N79          C83   1.345       .  A
N79         Cu87   2.052   1_655  S
N80          C81   1.344       .  A
N80         Cu86   2.065       .  S
C81          C82   1.384       .  A
C81          H84   1.081       .  S
C82         C284   1.469       .  S
C82          C83   1.381       .  A
C83          H85   1.081   1_655  S
Cu86         N89   2.065       .  S
Cu87         N97   2.051       .  S
Cu88         N90   2.112   1_455  S
Cu88         N96   2.110       .  S
N89          N90   1.324       .  A
N89          C93   1.339       .  A
N90          C91   1.351   1_655  A
C91          C92   1.397       .  A
C91          H94   1.081       .  S
C92          C93   1.384   1_455  A
C93          H95   1.080       .  S
N96          N97   1.322       .  A
N96         C100   1.359       .  A
N97          C98   1.332       .  A
C98          C99   1.376       .  A
C98         H101   1.081       .  S
C99         C100   1.396       .  A
C100        H102   1.082   1_455  S
N103        N104   1.319       .  A
N103        C107   1.347       .  A
N103       Cu111   2.062       .  S
N104        C105   1.342       .  A
N104       Cu110   2.072       .  S
C105        C106   1.388       .  A
C105        H108   1.082       .  S
C106        C254   1.482       .  S
C106        C107   1.385       .  A
C107        H109   1.082       .  S
Cu110       N113   2.071       .  S
Cu111       N121   2.060       .  S
Cu112       N114   2.101       .  S
Cu112       N120   2.099       .  S
N113        N114   1.322       .  A
N113        C117   1.342       .  A
N114        C115   1.349       .  A
C115        C116   1.396       .  A
C115        H118   1.082       .  S
C116        C318   1.535       .  S
C116        C117   1.388       .  A
C117        H119   1.081       .  S
N120        N121   1.322       .  A
N120        C124   1.357       .  A
N121        C122   1.334       .  A
C122        C123   1.378       .  A
C122        H125   1.082       .  S
C123        C377   1.477       .  S
C123        C124   1.392       .  A
C124        H126   1.082       .  S
N127        N128   1.316       .  A
N127        C131   1.345       .  A
N127       Cu135   2.051       .  S
N128        C129   1.343       .  A
N128       Cu134   2.064       .  S
C129        C130   1.385       .  A
C129        H132   1.082       .  S
C130        C227   1.472       .  S
C130        C131   1.383       .  A
C131        H133   1.082       .  S
Cu134       N137   2.063       .  S
Cu135       N145   2.049       .  S
Cu136       N138   2.101       .  S
Cu136       N144   2.099       .  S
N137        N138   1.323       .  A
N137        C141   1.336       .  A
N138        C139   1.352       .  A
C139        C140   1.395       .  A
C139        H142   1.082       .  S
C140        C619   1.527       .  S
C140        C141   1.384       .  A
C141        H143   1.081       .  S
N144        N145   1.322       .  A
N144        C148   1.359       .  A
N145        C146   1.329       .  A
C146        C147   1.376       .  A
C146        H149   1.081       .  S
C147        C219   1.477       .  S
C147        C148   1.394       .  A
C148        H150   1.082       .  S
N151        N152   1.314       .  A
N151        C155   1.344       .  A
N151       Cu159   2.043   1_655  S
N152        C153   1.343       .  A
N152       Cu158   2.061       .  S
C153        C154   1.385       .  A
C153        H156   1.082       .  S
C154        C277   1.468       .  S
C154        C155   1.381       .  A
C155        H157   1.082   1_655  S
Cu158       N161   2.061       .  S
Cu159       N169   2.041       .  S
Cu160       N162   2.107       .  S
Cu160       N168   2.104       .  S
N161        N162   1.324   1_655  A
N161        C165   1.334       .  A
N162        C163   1.353       .  A
C163        C164   1.396       .  A
C163        H166   1.082       .  S
C164        C165   1.382   1_455  A
C165        H167   1.081       .  S
N168        N169   1.322       .  A
N168        C172   1.360       .  A
N169        C170   1.326       .  A
C170        C171   1.375       .  A
C170        H173   1.080       .  S
C171        C195   1.478   1_455  S
C171        C172   1.396       .  A
C172        H174   1.082       .  S
N175        N176   1.316       .  A
N175        C179   1.345   1_455  A
N175       Cu183   2.048   1_455  S
N176        C177   1.344       .  A
N176       Cu182   2.068       .  S
C177        C178   1.387       .  A
C177        H180   1.082       .  S
C178        C297   1.474       .  S
C178        C179   1.383   1_455  A
C179        H181   1.083       .  S
Cu182       N185   2.066       .  S
Cu183       N193   2.046       .  S
Cu184       N186   2.102       .  S
Cu184       N192   2.099   1_455  S
N185        N186   1.324       .  A
N185        C189   1.336       .  A
N186        C187   1.352   1_455  A
C187        C188   1.395   1_655  A
C187        H190   1.082       .  S
C188        C317   1.528       .  S
C188        C189   1.384       .  A
C189        H191   1.081       .  S
N192        N193   1.322       .  A
N192        C196   1.359   1_655  A
N193        C194   1.327       .  A
C194        C195   1.376       .  A
C194        H197   1.080       .  S
C195        C196   1.395   1_655  A
C196        H198   1.082       .  S
N199        N200   1.316       .  A
N199        C203   1.344       .  A
N199       Cu207   2.048       .  S
N200        C201   1.344       .  A
N200       Cu206   2.064       .  S
C201        C202   1.386       .  A
C201        H204   1.082       .  S
C202        C244   1.470       .  S
C202        C203   1.382       .  A
C203        H205   1.082       .  S
Cu206       N209   2.063       .  S
Cu207       N217   2.046       .  S
Cu208       N210   2.103       .  S
Cu208       N216   2.100       .  S
N209        N210   1.324       .  A
N209        C213   1.335       .  A
N210        C211   1.352       .  A
C211        C212   1.395       .  A
C211        H214   1.082       .  S
C212        C213   1.383       .  A
C213        H215   1.081       .  S
N216        N217   1.322       .  A
N216        C220   1.359       .  A
N217        C218   1.328       .  A
C218        C219   1.375       .  A
C218        H221   1.081       .  S
C219        C220   1.394       .  A
C220        H222   1.082       .  S
C223        C228   1.393       .  A
C223        C526   1.405       .  A
C223        F230   1.358       .  S
C224        C225   1.403       .  A
C224        C525   1.405       .  A
C225        C226   1.403       .  A
C225        F232   1.357       .  S
C226        C227   1.407       .  A
C226        F231   1.357       .  S
C227        C530   1.403       .  A
C228        C529   1.403   1_545  A
C228        F229   1.358       .  S
C233        C234   1.408   1_545  A
C233        C238   1.404       .  A
C233        F240   1.358       .  S
C234        C353   1.481       .  S
C234        C537   1.410       .  A
C235        C236   1.392       .  A
C235        C536   1.410       .  A
C235        F242   1.359       .  S
C236        C539   1.404       .  A
C236        F241   1.358       .  S
C237        C238   1.407   1_565  A
C237        C538   1.404       .  A
C238        F239   1.357       .  S
C243        C248   1.403       .  A
C243        C546   1.405       .  A
C243        F250   1.357       .  S
C244        C245   1.400       .  A
C244        C545   1.405       .  A
C245        C246   1.394       .  A
C245        F252   1.358       .  S
C246        C247   1.409       .  A
C246        F251   1.358       .  S
C247        C550   1.405       .  A
C248        C549   1.405   1_545  A
C248        F249   1.357       .  S
C253        C254   1.405       .  A
C253        C258   1.391       .  A
C253        F260   1.358       .  S
C254        C557   1.412       .  A
C255        C256   1.408   1_545  A
C255        C556   1.412       .  A
C255        F262   1.357       .  S
C256        C559   1.403       .  A
C256        F261   1.357       .  S
C257        C258   1.400       .  A
C257        C558   1.403       .  A
C258        F259   1.354       .  S
C263        C264   1.405       .  A
C263        C268   1.396       .  A
C263        F270   1.358       .  S
C264        C869   1.407   1_455  A
C265        C266   1.402       .  A
C265        C868   1.407       .  A
C265        F272   1.357       .  S
C266        C871   1.410       .  A
C266        F271   1.358       .  S
C267        C618   1.484       .  S
C267        C268   1.409       .  A
C267        C870   1.410   1_455  A
C268        F269   1.358       .  S
C273        C278   1.402       .  A
C273        C878   1.407       .  A
C273        F280   1.357       .  S
C274        C275   1.410       .  A
C274        C877   1.407   1_455  A
C275        C276   1.394       .  A
C275        F282   1.358       .  S
C276        C277   1.400   1_455  A
C276        F281   1.358       .  S
C277        C882   1.403       .  A
C278        C881   1.403       .  A
C278        F279   1.357       .  S
C283        C284   1.401   1_455  A
C283        C288   1.394       .  A
C283        F290   1.358       .  S
C284        C889   1.404       .  A
C285        C286   1.403       .  A
C285        C888   1.404       .  A
C285        F292   1.358       .  S
C286        C891   1.407       .  A
C286        F291   1.357       .  S
C287        C616   1.475       .  S
C287        C288   1.409       .  A
C287        C890   1.407   1_455  A
C288        F289   1.358       .  S
C293        C298   1.394       .  A
C293        C898   1.406       .  A
C293        F300   1.358       .  S
C294        C295   1.403   1_655  A
C294        C897   1.406       .  A
C295        C296   1.404       .  A
C295        F302   1.357       .  S
C296        C297   1.408       .  A
C296        F301   1.357       .  S
C297        C902   1.403   1_455  A
C298        C901   1.403       .  A
C298        F299   1.358       .  S
O303       Cu311   1.996   1_565  S
O303        C313   1.277       .  A
O304        C918   1.276       .  A
O305        C315   1.277   1_455  A
O306       Cu311   2.006   1_565  S
O306        C920   1.278       .  A
O307        C316   1.278       .  A
O308       Cu312   2.004       .  S
O308        C919   1.277       .  A
O309       Cu312   2.018       .  S
O309        C314   1.279       .  A
O310        C917   1.278       .  A
Cu311      Cu614   2.371   1_445  S
Cu312      Cu613   2.371       .  S
C313        O914   1.278   1_455  A
C313        C576   1.477       .  S
C314        O908   1.276       .  A
C314       C1193   1.475       .  S
C315        O912   1.277       .  A
C315        C596   1.469       .  S
C316        O910   1.278       .  A
C316       C1173   1.484       .  S
C317       C1046   1.527   1_445  S
C317        C466   1.527   1_545  S
C317        C514   1.526       .  S
C318        C974   1.533   1_455  S
C318        C394   1.534       .  S
N319        N320   1.317   1_655  A
N319        C323   1.346       .  A
N319       Cu327   2.060       .  S
N320        C321   1.342       .  A
N320       Cu326   2.066       .  S
C321        C322   1.387       .  A
C321        H324   1.081       .  S
C322        C566   1.481       .  S
C322        C323   1.387   1_455  A
C323        H325   1.081       .  S
Cu326       N329   2.065       .  S
Cu327       N337   2.059       .  S
Cu328       N330   2.108       .  S
Cu328       N336   2.106   1_455  S
N329        N330   1.323       .  A
N329        C333   1.341       .  A
N330        C331   1.351       .  A
C331        C332   1.397       .  A
C331        H334   1.082   1_455  S
C332        C333   1.386       .  A
C333        H335   1.080       .  S
N336        N337   1.323       .  A
N336        C340   1.359   1_655  A
N337        C338   1.333       .  A
C338        C339   1.378       .  A
C338        H341   1.081       .  S
C339        C401   1.480   1_655  S
C339        C340   1.394   1_655  A
C340        H342   1.082       .  S
O343       Cu955   1.985       .  S
O343        C353   1.275       .  A
O344       Cu351   1.992       .  S
O344        C354   1.276       .  A
O345       Cu351   2.023   1_554  S
O345        C355   1.279       .  A
O346       Cu955   2.013   1_556  S
O346        C356   1.278       .  A
O347       Cu956   1.997   1_556  S
O348       Cu352   2.002       .  S
O349       Cu352   2.018   1_556  S
O350       Cu956   2.026       .  S
Cu351       O947   1.985   1_456  S
Cu351       O950   2.014   1_455  S
Cu352       O951   1.997   1_454  S
Cu352       O954   2.026   1_455  S
C354        C549   1.474       .  S
C355        C559   1.470       .  S
C356        C526   1.467   1_565  S
N357        N358   1.317       .  A
N357        C361   1.347       .  A
N357       Cu365   2.060       .  S
N358        C359   1.340       .  A
N358       Cu364   2.057       .  S
C359        C360   1.385       .  A
C359        H362   1.082       .  S
C360        C539   1.477       .  S
C360        C361   1.386       .  A
C361        H363   1.082       .  S
Cu364       N367   2.056       .  S
Cu365       N375   2.060       .  S
Cu366       N368   2.109       .  S
Cu366       N374   2.108       .  S
N367        N368   1.322       .  A
N367        C371   1.340       .  A
N368        C369   1.350       .  A
C369        C370   1.398       .  A
C369        H372   1.082       .  S
C370        C922   1.533       .  S
C370        C371   1.384       .  A
C371        H373   1.080       .  S
N374        N375   1.324       .  A
N374        C378   1.358       .  A
N375        C376   1.334       .  A
C376        C377   1.376       .  A
C376        H379   1.082       .  S
C377        C378   1.393       .  A
C378        H380   1.082       .  S
N381        N382   1.317       .  A
N381        C385   1.345       .  A
N381       Cu389   2.052   1_655  S
N382        C383   1.344       .  A
N382       Cu388   2.066       .  S
C383        C384   1.384       .  A
C383        H386   1.081       .  S
C384        C586   1.469       .  S
C384        C385   1.381       .  A
C385        H387   1.081   1_655  S
Cu388       N391   2.065       .  S
Cu389       N399   2.051       .  S
Cu390       N392   2.112   1_455  S
Cu390       N398   2.110       .  S
N391        N392   1.324       .  A
N391        C395   1.339       .  A
N392        C393   1.351   1_655  A
C393        C394   1.397       .  A
C393        H396   1.081       .  S
C394        C395   1.384   1_455  A
C395        H397   1.080       .  S
N398        N399   1.322       .  A
N398        C402   1.359       .  A
N399        C400   1.332       .  A
C400        C401   1.376       .  A
C400        H403   1.081       .  S
C401        C402   1.396       .  A
C402        H404   1.082   1_455  S
N405        N406   1.319   1_565  A
N405        C409   1.347       .  A
N405       Cu413   2.062       .  S
N406        C407   1.342       .  A
N406       Cu412   2.072       .  S
C407        C408   1.388       .  A
C407        H410   1.082       .  S
C408        C556   1.482       .  S
C408        C409   1.385   1_545  A
C409        H411   1.082       .  S
Cu412       N415   2.071       .  S
Cu413       N423   2.060       .  S
Cu414       N416   2.100   1_565  S
Cu414       N422   2.098       .  S
N415        N416   1.322       .  A
N415        C419   1.342       .  A
N416        C417   1.349   1_545  A
C417        C418   1.396   1_565  A
C417        H420   1.082       .  S
C418        C419   1.388       .  A
C419        H421   1.081       .  S
N422        N423   1.322       .  A
N422        C426   1.356       .  A
N423        C424   1.334       .  A
C424        C425   1.378       .  A
C424        H427   1.082       .  S
C425        C426   1.392       .  A
C426        H428   1.082   1_565  S
N429        N430   1.316       .  A
N429        C433   1.345   1_565  A
N429       Cu437   2.052   1_565  S
N430        C431   1.343       .  A
N430       Cu436   2.064       .  S
C431        C432   1.386       .  A
C431        H434   1.082       .  S
C432        C529   1.472       .  S
C432        C433   1.383   1_565  A
C433        H435   1.082       .  S
Cu436       N439   2.063       .  S
Cu437       N447   2.049       .  S
Cu438       N440   2.101   1_545  S
Cu438       N446   2.099       .  S
N439        N440   1.323       .  A
N439        C443   1.336       .  A
N440        C441   1.352   1_565  A
C441        C442   1.395   1_545  A
C441        H444   1.082       .  S
C442        C921   1.527   1_565  S
C442        C443   1.384       .  A
C443        H445   1.081       .  S
N446        N447   1.322       .  A
N446        C450   1.359       .  A
N447        C448   1.329       .  A
C448        C449   1.376       .  A
C448        H451   1.081       .  S
C449        C521   1.477   1_545  S
C449        C450   1.394       .  A
C450        H452   1.082   1_545  S
N453        N454   1.314       .  A
N453        C457   1.344       .  A
N453       Cu461   2.043   1_655  S
N454        C455   1.343       .  A
N454       Cu460   2.061       .  S
C455        C456   1.385       .  A
C455        H458   1.082       .  S
C456        C579   1.468       .  S
C456        C457   1.381       .  A
C457        H459   1.082   1_655  S
Cu460       N463   2.060       .  S
Cu461       N471   2.041       .  S
Cu462       N464   2.107       .  S
Cu462       N470   2.104       .  S
N463        N464   1.324   1_655  A
N463        C467   1.334       .  A
N464        C465   1.353       .  A
C465        C466   1.396       .  A
C465        H468   1.082       .  S
C466        C467   1.382   1_455  A
C467        H469   1.081       .  S
N470        N471   1.322       .  A
N470        C474   1.360       .  A
N471        C472   1.326       .  A
C472        C473   1.375       .  A
C472        H475   1.080       .  S
C473        C497   1.478   1_455  S
C473        C474   1.396       .  A
C474        H476   1.082       .  S
N477        N478   1.316       .  A
N477        C481   1.345   1_455  A
N477       Cu485   2.048   1_455  S
N478        C479   1.344       .  A
N478       Cu484   2.068       .  S
C479        C480   1.387       .  A
C479        H482   1.082       .  S
C480        C599   1.474       .  S
C480        C481   1.383   1_455  A
C481        H483   1.083       .  S
Cu484       N487   2.066       .  S
Cu485       N495   2.046       .  S
Cu486       N488   2.102       .  S
Cu486       N494   2.099   1_455  S
N487        N488   1.324       .  A
N487        C491   1.336       .  A
N488        C489   1.352   1_455  A
C489        C490   1.395   1_655  A
C489        H492   1.082       .  S
C490        C491   1.384       .  A
C491        H493   1.081       .  S
N494        N495   1.322       .  A
N494        C498   1.359   1_655  A
N495        C496   1.327       .  A
C496        C497   1.376       .  A
C496        H499   1.080       .  S
C497        C498   1.395   1_655  A
C498        H500   1.082       .  S
N501        N502   1.316       .  A
N501        C505   1.344       .  A
N501       Cu509   2.048   1_545  S
N502        C503   1.344       .  A
N502       Cu508   2.064       .  S
C503        C504   1.386       .  A
C503        H506   1.082       .  S
C504        C546   1.470       .  S
C504        C505   1.382       .  A
C505        H507   1.082   1_545  S
Cu508       N511   2.063       .  S
Cu509       N519   2.046       .  S
Cu510       N512   2.103   1_565  S
Cu510       N518   2.100       .  S
N511        N512   1.324       .  A
N511        C515   1.335       .  A
N512        C513   1.352   1_545  A
C513        C514   1.395   1_565  A
C513        H516   1.082       .  S
C514        C515   1.383       .  A
C515        H517   1.081       .  S
N518        N519   1.322       .  A
N518        C522   1.359       .  A
N519        C520   1.328       .  A
C520        C521   1.375       .  A
C520        H523   1.081       .  S
C521        C522   1.394       .  A
C522        H524   1.082   1_565  S
C525        C530   1.393       .  A
C525        F532   1.358       .  S
C526        C527   1.403   1_545  A
C527        C528   1.403       .  A
C527        F534   1.357       .  S
C528        C529   1.407       .  A
C528        F533   1.357       .  S
C530        F531   1.358       .  S
C535        C536   1.408       .  A
C535        C540   1.404       .  A
C535        F542   1.358       .  S
C537        C538   1.392       .  A
C537        F544   1.359       .  S
C538        F543   1.358       .  S
C539        C540   1.407       .  A
C540        F541   1.357       .  S
C545        C550   1.403       .  A
C545        F552   1.357       .  S
C546        C547   1.400   1_545  A
C547        C548   1.394       .  A
C547        F554   1.358       .  S
C548        C549   1.409       .  A
C548        F553   1.358       .  S
C550        F551   1.357       .  S
C555        C556   1.405   1_565  A
C555        C560   1.391       .  A
C555        F562   1.358       .  S
C557        C558   1.408       .  A
C557        F564   1.357       .  S
C558        F563   1.357       .  S
C559        C560   1.400       .  A
C560        F561   1.354       .  S
C565        C566   1.405       .  A
C565        C570   1.395       .  A
C565        F572   1.358       .  S
C566       C1171   1.407   1_455  A
C567       C1170   1.407       .  A
C567        C568   1.402       .  A
C567        F574   1.357       .  S
C568       C1173   1.410       .  A
C568        F573   1.358       .  S
C569        C920   1.484       .  S
C569       C1172   1.410   1_455  A
C569        C570   1.409       .  A
C570        F571   1.358       .  S
C575       C1180   1.407       .  A
C575        C580   1.402       .  A
C575        F582   1.357       .  S
C576       C1179   1.407   1_455  A
C576        C577   1.410       .  A
C577        C578   1.394       .  A
C577        F584   1.358       .  S
C578        C579   1.400   1_455  A
C578        F583   1.358       .  S
C579       C1184   1.403       .  A
C580       C1183   1.403       .  A
C580        F581   1.357       .  S
C585        C586   1.401   1_455  A
C585        C590   1.395       .  A
C585        F592   1.358       .  S
C586       C1191   1.404       .  A
C587       C1190   1.404       .  A
C587        C588   1.403       .  A
C587        F594   1.358       .  S
C588       C1193   1.407       .  A
C588        F593   1.357       .  S
C589        C918   1.475       .  S
C589       C1192   1.407   1_455  A
C589        C590   1.409       .  A
C590        F591   1.358       .  S
C595       C1200   1.406       .  A
C595        C600   1.394       .  A
C595        F602   1.358       .  S
C596       C1199   1.406       .  A
C596        C597   1.403   1_655  A
C597        C598   1.404       .  A
C597        F604   1.357       .  S
C598        C599   1.408       .  A
C598        F603   1.357       .  S
C599       C1204   1.403   1_455  A
C600       C1203   1.403       .  A
C600        F601   1.358       .  S
O605       Cu613   1.996       .  S
O605        C615   1.277       .  A
O606       Cu915   1.993       .  S
O607       Cu915   2.009       .  S
O607        C617   1.277       .  A
O608       Cu613   2.006       .  S
O609       Cu916   2.006       .  S
O609        C618   1.278   1_655  A
O610       Cu614   2.004   1_545  S
O611       Cu614   2.018   1_545  S
O611        C616   1.279   1_655  A
O612       Cu916   2.011       .  S
Cu613       O908   1.993       .  S
Cu613       O909   2.009       .  S
Cu614       O911   2.006       .  S
Cu614       O914   2.011       .  S
C615        C878   1.477       .  S
C617        C898   1.469       .  S
C619        C768   1.527       .  S
C619       C1094   1.528       .  S
C619        C816   1.526       .  S
C620        C936   1.536   1_545  S
C620        C696   1.534       .  S
C620       C1022   1.535       .  S
N621        N622   1.317       .  A
N621        C625   1.346       .  A
N621       Cu629   2.060       .  S
N622        C623   1.342       .  A
N622       Cu628   2.066       .  S
C623        C624   1.387       .  A
C623        H626   1.081       .  S
C624        C868   1.481       .  S
C624        C625   1.387       .  A
C625        H627   1.081       .  S
Cu628       N631   2.065       .  S
Cu629       N639   2.059       .  S
Cu630       N632   2.108       .  S
Cu630       N638   2.106       .  S
N631        N632   1.323       .  A
N631        C635   1.341       .  A
N632        C633   1.351       .  A
C633        C634   1.397       .  A
C633        H636   1.082       .  S
C634        C922   1.536       .  S
C634        C635   1.386       .  A
C635        H637   1.080       .  S
N638        N639   1.323       .  A
N638        C642   1.359       .  A
N639        C640   1.333       .  A
C640        C641   1.378       .  A
C640        H643   1.081       .  S
C641        C703   1.480       .  S
C641        C642   1.394       .  A
C642        H644   1.082       .  S
O645        C655   1.275       .  A
O646       Cu653   1.992   1_556  S
O646        C656   1.276       .  A
O647       Cu653   2.023       .  S
O647        C657   1.279       .  A
O648        C658   1.278       .  A
O649        C960   1.276   1_545  A
O650       Cu654   2.002       .  S
O650        C959   1.275   1_545  A
O651       Cu654   2.018   1_556  S
O651        C958   1.279   1_545  A
O652        C957   1.281   1_545  A
Cu653      Cu956   2.374       .  S
Cu654      Cu955   2.374   1_545  S
C655        O954   1.281       .  A
C655       C1140   1.481       .  S
C656        O953   1.279       .  A
C656        C851   1.474       .  S
C657        O952   1.275       .  A
C657        C861   1.470       .  S
C658        O951   1.276       .  A
C658        C828   1.467       .  S
N659        N660   1.317   1_545  A
N659        C663   1.347       .  A
N659       Cu667   2.060       .  S
N660        C661   1.340       .  A
N660       Cu666   2.057       .  S
C661        C662   1.385   1_565  A
C661        H664   1.082       .  S
C662        C841   1.477   1_545  S
C662        C663   1.386       .  A
C663        H665   1.082       .  S
Cu666       N669   2.056       .  S
Cu667       N677   2.060       .  S
Cu668       N670   2.109   1_545  S
Cu668       N676   2.108       .  S
N669        N670   1.322       .  A
N669        C673   1.340       .  A
N670        C671   1.350   1_565  A
C671        C672   1.398   1_545  A
C671        H674   1.082       .  S
C672        C673   1.384       .  A
C673        H675   1.080       .  S
N676        N677   1.324       .  A
N676        C680   1.358   1_545  A
N677        C678   1.334       .  A
C678        C679   1.376       .  A
C678        H681   1.082       .  S
C679       C1029   1.477   1_545  S
C679        C680   1.393   1_545  A
C680        H682   1.082       .  S
N683        N684   1.317       .  A
N683        C687   1.345       .  A
N683       Cu691   2.052       .  S
N684        C685   1.344       .  A
N684       Cu690   2.066       .  S
C685        C686   1.384       .  A
C685        H688   1.081       .  S
C686        C888   1.469       .  S
C686        C687   1.381       .  A
C687        H689   1.081       .  S
Cu690       N693   2.065       .  S
Cu691       N701   2.051       .  S
Cu692       N694   2.112       .  S
Cu692       N700   2.110       .  S
N693        N694   1.324       .  A
N693        C697   1.339       .  A
N694        C695   1.351       .  A
C695        C696   1.397       .  A
C695        H698   1.081       .  S
C696        C697   1.384       .  A
C697        H699   1.080       .  S
N700        N701   1.322       .  A
N700        C704   1.359       .  A
N701        C702   1.332       .  A
C702        C703   1.376       .  A
C702        H705   1.081       .  S
C703        C704   1.396       .  A
C704        H706   1.082       .  S
N707        N708   1.319       .  A
N707        C711   1.347       .  A
N707       Cu715   2.062       .  S
N708        C709   1.342       .  A
N708       Cu714   2.072       .  S
C709        C710   1.388       .  A
C709        H712   1.082       .  S
C710        C858   1.482       .  S
C710        C711   1.385       .  A
C711        H713   1.082       .  S
Cu714       N717   2.071       .  S
Cu715       N725   2.060       .  S
Cu716       N718   2.101       .  S
Cu716       N724   2.099       .  S
N717        N718   1.322       .  A
N717        C721   1.342       .  A
N718        C719   1.349       .  A
C719        C720   1.396       .  A
C719        H722   1.082       .  S
C720        C922   1.535       .  S
C720        C721   1.388       .  A
C721        H723   1.081       .  S
N724        N725   1.322       .  A
N724        C728   1.357       .  A
N725        C726   1.334       .  A
C726        C727   1.378       .  A
C726        H729   1.082       .  S
C727        C981   1.477       .  S
C727        C728   1.392       .  A
C728        H730   1.082       .  S
N731        N732   1.316       .  A
N731        C735   1.345       .  A
N731       Cu739   2.051       .  S
N732        C733   1.343       .  A
N732       Cu738   2.064       .  S
C733        C734   1.385       .  A
C733        H736   1.082       .  S
C734        C831   1.472       .  S
C734        C735   1.383       .  A
C735        H737   1.082       .  S
Cu738       N741   2.063       .  S
Cu739       N749   2.049       .  S
Cu740       N742   2.101       .  S
Cu740       N748   2.099       .  S
N741        N742   1.323       .  A
N741        C745   1.336       .  A
N742        C743   1.352       .  A
C743        C744   1.395       .  A
C743        H746   1.082       .  S
C744        C745   1.384       .  A
C745        H747   1.081       .  S
N748        N749   1.322       .  A
N748        C752   1.359       .  A
N749        C750   1.329       .  A
C750        C751   1.376       .  A
C750        H753   1.081       .  S
C751        C823   1.477       .  S
C751        C752   1.394       .  A
C752        H754   1.082       .  S
N755        N756   1.314       .  A
N755        C759   1.344       .  A
N755       Cu763   2.043       .  S
N756        C757   1.343       .  A
N756       Cu762   2.061       .  S
C757        C758   1.385       .  A
C757        H760   1.082       .  S
C758        C881   1.468       .  S
C758        C759   1.381       .  A
C759        H761   1.082       .  S
Cu762       N765   2.060       .  S
Cu763       N773   2.041       .  S
Cu764       N766   2.107       .  S
Cu764       N772   2.104       .  S
N765        N766   1.324       .  A
N765        C769   1.334       .  A
N766        C767   1.353       .  A
C767        C768   1.396       .  A
C767        H770   1.082       .  S
C768        C769   1.382       .  A
C769        H771   1.081       .  S
N772        N773   1.322       .  A
N772        C776   1.360       .  A
N773        C774   1.326       .  A
C774        C775   1.375       .  A
C774        H777   1.080       .  S
C775        C799   1.478       .  S
C775        C776   1.396       .  A
C776        H778   1.082       .  S
N779        N780   1.316       .  A
N779        C783   1.345       .  A
N779       Cu787   2.048       .  S
N780        C781   1.344       .  A
N780       Cu786   2.068       .  S
C781        C782   1.387       .  A
C781        H784   1.082       .  S
C782        C901   1.474       .  S
C782        C783   1.383       .  A
C783        H785   1.083       .  S
Cu786       N789   2.066       .  S
Cu787       N797   2.046       .  S
Cu788       N790   2.102       .  S
Cu788       N796   2.099       .  S
N789        N790   1.324       .  A
N789        C793   1.336       .  A
N790        C791   1.352       .  A
C791        C792   1.395       .  A
C791        H794   1.082       .  S
C792        C921   1.528       .  S
C792        C793   1.384       .  A
C793        H795   1.081       .  S
N796        N797   1.322       .  A
N796        C800   1.359       .  A
N797        C798   1.327       .  A
C798        C799   1.376       .  A
C798        H801   1.080       .  S
C799        C800   1.395       .  A
C800        H802   1.082       .  S
N803        N804   1.316       .  A
N803        C807   1.344       .  A
N803       Cu811   2.048       .  S
N804        C805   1.344       .  A
N804       Cu810   2.064       .  S
C805        C806   1.386       .  A
C805        H808   1.082       .  S
C806        C848   1.470       .  S
C806        C807   1.382       .  A
C807        H809   1.082       .  S
Cu810       N813   2.063       .  S
Cu811       N821   2.046       .  S
Cu812       N814   2.103       .  S
Cu812       N820   2.100       .  S
N813        N814   1.324       .  A
N813        C817   1.335       .  A
N814        C815   1.352       .  A
C815        C816   1.395       .  A
C815        H818   1.082       .  S
C816        C817   1.383       .  A
C817        H819   1.081       .  S
N820        N821   1.322       .  A
N820        C824   1.359       .  A
N821        C822   1.328       .  A
C822        C823   1.375       .  A
C822        H825   1.081       .  S
C823        C824   1.394       .  A
C824        H826   1.082       .  S
C827       C1130   1.405       .  A
C827        C832   1.393       .  A
C827        F834   1.358       .  S
C828       C1129   1.405       .  A
C828        C829   1.403       .  A
C829        C830   1.403       .  A
C829        F836   1.357       .  S
C830        C831   1.407       .  A
C830        F835   1.357       .  S
C831       C1134   1.403       .  A
C832       C1133   1.403   1_545  A
C832        F833   1.358       .  S
C837        C838   1.408   1_545  A
C837        C842   1.404       .  A
C837        F844   1.358       .  S
C838        C957   1.481       .  S
C838       C1141   1.410       .  A
C839       C1140   1.410       .  A
C839        C840   1.392       .  A
C839        F846   1.359       .  S
C840       C1143   1.404       .  A
C840        F845   1.358       .  S
C841       C1142   1.404       .  A
C841        C842   1.407   1_565  A
C842        F843   1.357       .  S
C847       C1150   1.405       .  A
C847        C852   1.403       .  A
C847        F854   1.357       .  S
C848       C1149   1.405       .  A
C848        C849   1.400       .  A
C849        C850   1.394       .  A
C849        F856   1.358       .  S
C850        C851   1.409       .  A
C850        F855   1.358       .  S
C851       C1154   1.405       .  A
C852       C1153   1.405   1_545  A
C852        F853   1.357       .  S
C857        C858   1.405       .  A
C857        C862   1.391       .  A
C857        F864   1.358       .  S
C858       C1161   1.412       .  A
C859       C1160   1.412       .  A
C859        C860   1.408   1_545  A
C859        F866   1.357       .  S
C860       C1163   1.403       .  A
C860        F865   1.357       .  S
C861       C1162   1.403       .  A
C861        C862   1.400       .  A
C862        F863   1.354       .  S
C867        C868   1.405       .  A
C867        C872   1.396       .  A
C867        F874   1.358       .  S
C869        C870   1.402       .  A
C869        F876   1.357       .  S
C870        F875   1.358       .  S
C871        C872   1.409       .  A
C872        F873   1.358       .  S
C877        C882   1.402       .  A
C877        F884   1.357       .  S
C878        C879   1.410       .  A
C879        C880   1.394       .  A
C879        F886   1.358       .  S
C880        C881   1.400       .  A
C880        F885   1.358       .  S
C882        F883   1.357       .  S
C887        C888   1.401       .  A
C887        C892   1.395       .  A
C887        F894   1.358       .  S
C889        C890   1.403       .  A
C889        F896   1.358       .  S
C890        F895   1.357       .  S
C891        C892   1.409       .  A
C892        F893   1.358       .  S
C897        C902   1.394       .  A
C897        F904   1.358       .  S
C898        C899   1.403       .  A
C899        C900   1.404       .  A
C899        F906   1.357       .  S
C900        C901   1.408       .  A
C900        F905   1.357       .  S
C902        F903   1.358       .  S
O907       Cu915   1.996   1_565  S
O907        C917   1.277       .  A
O909        C919   1.277       .  A
O910       Cu915   2.006   1_565  S
O911        C920   1.278   1_655  A
O912       Cu916   2.004       .  S
O913       Cu916   2.018       .  S
O913        C918   1.279   1_655  A
C917       C1180   1.477       .  S
C919       C1200   1.469       .  S
C921       C1070   1.527   1_545  S
C921       C1118   1.526       .  S
C922        C998   1.534       .  S
N923        N924   1.317       .  A
N923        C927   1.346       .  A
N923       Cu931   2.060       .  S
N924        C925   1.342       .  A
N924       Cu930   2.066       .  S
C925        C926   1.387       .  A
C925        H928   1.081       .  S
C926       C1170   1.481       .  S
C926        C927   1.387       .  A
C927        H929   1.081       .  S
Cu930       N933   2.066       .  S
Cu931       N941   2.059       .  S
Cu932       N934   2.108       .  S
Cu932       N940   2.106       .  S
N933        N934   1.323       .  A
N933        C937   1.341       .  A
N934        C935   1.351       .  A
C935        C936   1.397       .  A
C935        H938   1.082       .  S
C936        C937   1.386       .  A
C937        H939   1.080       .  S
N940        N941   1.323       .  A
N940        C944   1.359       .  A
N941        C942   1.333       .  A
C942        C943   1.378       .  A
C942        H945   1.081       .  S
C943       C1005   1.480       .  S
C943        C944   1.394       .  A
C944        H946   1.082       .  S
O947        C957   1.275       .  A
O948       Cu955   1.992   1_556  S
O948        C958   1.276       .  A
O949       Cu955   2.023       .  S
O949        C959   1.279       .  A
O950        C960   1.278       .  A
O952       Cu956   2.002       .  S
O953       Cu956   2.018   1_556  S
C958       C1153   1.474       .  S
C959       C1163   1.470       .  S
C960       C1130   1.467   1_565  S
N961        N962   1.317       .  A
N961        C965   1.347       .  A
N961       Cu969   2.060       .  S
N962        C963   1.340       .  A
N962       Cu968   2.057       .  S
C963        C964   1.385       .  A
C963        H966   1.082       .  S
C964       C1143   1.477       .  S
C964        C965   1.386       .  A
C965        H967   1.082       .  S
Cu968       N971   2.056       .  S
Cu969       N979   2.060       .  S
Cu970       N972   2.109       .  S
Cu970       N978   2.108       .  S
N971        N972   1.322       .  A
N971        C975   1.340       .  A
N972        C973   1.350       .  A
C973        C974   1.398       .  A
C973        H976   1.082       .  S
C974        C975   1.384       .  A
C975        H977   1.080       .  S
N978        N979   1.324       .  A
N978        C982   1.358       .  A
N979        C980   1.334       .  A
C980        C981   1.376       .  A
C980        H983   1.082       .  S
C981        C982   1.393       .  A
C982        H984   1.082       .  S
N985        N986   1.317       .  A
N985        C989   1.345       .  A
N985       Cu993   2.052       .  S
N986        C987   1.344       .  A
N986       Cu992   2.065       .  S
C987        C988   1.384       .  A
C987        H990   1.081       .  S
C988       C1190   1.469       .  S
C988        C989   1.381       .  A
C989        H991   1.081       .  S
Cu992       N995   2.065       .  S
Cu993      N1003   2.051       .  S
Cu994       N996   2.112       .  S
Cu994      N1002   2.110       .  S
N995        N996   1.324       .  A
N995        C999   1.339       .  A
N996        C997   1.351       .  A
C997        C998   1.397       .  A
C997       H1000   1.081       .  S
C998        C999   1.384       .  A
C999       H1001   1.080       .  S
N1002      N1003   1.322       .  A
N1002      C1006   1.359       .  A
N1003      C1004   1.332       .  A
C1004      C1005   1.376       .  A
C1004      H1007   1.081       .  S
C1005      C1006   1.396       .  A
C1006      H1008   1.082       .  S
N1009      N1010   1.319   1_565  A
N1009      C1013   1.347       .  A
N1009     Cu1017   2.062       .  S
N1010      C1011   1.342       .  A
N1010     Cu1016   2.072       .  S
C1011      C1012   1.388       .  A
C1011      H1014   1.082       .  S
C1012      C1160   1.482       .  S
C1012      C1013   1.385   1_545  A
C1013      H1015   1.082       .  S
Cu1016     N1019   2.071       .  S
Cu1017     N1027   2.060       .  S
Cu1018     N1020   2.101   1_565  S
Cu1018     N1026   2.099       .  S
N1019      N1020   1.322       .  A
N1019      C1023   1.342       .  A
N1020      C1021   1.349   1_545  A
C1021      C1022   1.396   1_565  A
C1021      H1024   1.082       .  S
C1022      C1023   1.387       .  A
C1023      H1025   1.081       .  S
N1026      N1027   1.322       .  A
N1026      C1030   1.357       .  A
N1027      C1028   1.334       .  A
C1028      C1029   1.378       .  A
C1028      H1031   1.082       .  S
C1029      C1030   1.392       .  A
C1030      H1032   1.082   1_565  S
N1033      N1034   1.316       .  A
N1033      C1037   1.345   1_565  A
N1033     Cu1041   2.051   1_565  S
N1034      C1035   1.343       .  A
N1034     Cu1040   2.064       .  S
C1035      C1036   1.385       .  A
C1035      H1038   1.082       .  S
C1036      C1133   1.472       .  S
C1036      C1037   1.383   1_565  A
C1037      H1039   1.082       .  S
Cu1040     N1043   2.063       .  S
Cu1041     N1051   2.049       .  S
Cu1042     N1044   2.101   1_545  S
Cu1042     N1050   2.099       .  S
N1043      N1044   1.323       .  A
N1043      C1047   1.336       .  A
N1044      C1045   1.352   1_565  A
C1045      C1046   1.395   1_545  A
C1045      H1048   1.082       .  S
C1046      C1047   1.384       .  A
C1047      H1049   1.081       .  S
N1050      N1051   1.322       .  A
N1050      C1054   1.359       .  A
N1051      C1052   1.329       .  A
C1052      C1053   1.376       .  A
C1052      H1055   1.081       .  S
C1053      C1125   1.477   1_545  S
C1053      C1054   1.394       .  A
C1054      H1056   1.082   1_545  S
N1057      N1058   1.314       .  A
N1057      C1061   1.344       .  A
N1057     Cu1065   2.043       .  S
N1058      C1059   1.343       .  A
N1058     Cu1064   2.061       .  S
C1059      C1060   1.385       .  A
C1059      H1062   1.082       .  S
C1060      C1183   1.468       .  S
C1060      C1061   1.381       .  A
C1061      H1063   1.082       .  S
Cu1064     N1067   2.060       .  S
Cu1065     N1075   2.041       .  S
Cu1066     N1068   2.107       .  S
Cu1066     N1074   2.104       .  S
N1067      N1068   1.324       .  A
N1067      C1071   1.334       .  A
N1068      C1069   1.353       .  A
C1069      C1070   1.396       .  A
C1069      H1072   1.082       .  S
C1070      C1071   1.382       .  A
C1071      H1073   1.081       .  S
N1074      N1075   1.322       .  A
N1074      C1078   1.360       .  A
N1075      C1076   1.326       .  A
C1076      C1077   1.375       .  A
C1076      H1079   1.080       .  S
C1077      C1101   1.478       .  S
C1077      C1078   1.396       .  A
C1078      H1080   1.082       .  S
N1081      N1082   1.316       .  A
N1081      C1085   1.345       .  A
N1081     Cu1089   2.048       .  S
N1082      C1083   1.344       .  A
N1082     Cu1088   2.068       .  S
C1083      C1084   1.387       .  A
C1083      H1086   1.082       .  S
C1084      C1203   1.474       .  S
C1084      C1085   1.383       .  A
C1085      H1087   1.083       .  S
Cu1088     N1091   2.066       .  S
Cu1089     N1099   2.046       .  S
Cu1090     N1092   2.103       .  S
Cu1090     N1098   2.099       .  S
N1091      N1092   1.324       .  A
N1091      C1095   1.336       .  A
N1092      C1093   1.352       .  A
C1093      C1094   1.395       .  A
C1093      H1096   1.082       .  S
C1094      C1095   1.384       .  A
C1095      H1097   1.081       .  S
N1098      N1099   1.322       .  A
N1098      C1102   1.359       .  A
N1099      C1100   1.327       .  A
C1100      C1101   1.376       .  A
C1100      H1103   1.080       .  S
C1101      C1102   1.395       .  A
C1102      H1104   1.082       .  S
N1105      N1106   1.316       .  A
N1105      C1109   1.345       .  A
N1105     Cu1113   2.049   1_545  S
N1106      C1107   1.344       .  A
N1106     Cu1112   2.064       .  S
C1107      C1108   1.386       .  A
C1107      H1110   1.082       .  S
C1108      C1150   1.470       .  S
C1108      C1109   1.382       .  A
C1109      H1111   1.082   1_545  S
Cu1112     N1115   2.063       .  S
Cu1113     N1123   2.046       .  S
Cu1114     N1116   2.103   1_565  S
Cu1114     N1122   2.100       .  S
N1115      N1116   1.324       .  A
N1115      C1119   1.335       .  A
N1116      C1117   1.352   1_545  A
C1117      C1118   1.395   1_565  A
C1117      H1120   1.082       .  S
C1118      C1119   1.383       .  A
C1119      H1121   1.081       .  S
N1122      N1123   1.322       .  A
N1122      C1126   1.359       .  A
N1123      C1124   1.328       .  A
C1124      C1125   1.375       .  A
C1124      H1127   1.081       .  S
C1125      C1126   1.394       .  A
C1126      H1128   1.082   1_565  S
C1129      C1134   1.393       .  A
C1129      F1136   1.358       .  S
C1130      C1131   1.403   1_545  A
C1131      C1132   1.403       .  A
C1131      F1138   1.357       .  S
C1132      C1133   1.407       .  A
C1132      F1137   1.357       .  S
C1134      F1135   1.358       .  S
C1139      C1140   1.408       .  A
C1139      C1144   1.404       .  A
C1139      F1146   1.358       .  S
C1141      C1142   1.392       .  A
C1141      F1148   1.359       .  S
C1142      F1147   1.358       .  S
C1143      C1144   1.407       .  A
C1144      F1145   1.357       .  S
C1149      C1154   1.403       .  A
C1149      F1156   1.357       .  S
C1150      C1151   1.400   1_545  A
C1151      C1152   1.394       .  A
C1151      F1158   1.358       .  S
C1152      C1153   1.409       .  A
C1152      F1157   1.358       .  S
C1154      F1155   1.357       .  S
C1159      C1160   1.405   1_565  A
C1159      C1164   1.391       .  A
C1159      F1166   1.358       .  S
C1161      C1162   1.408       .  A
C1161      F1168   1.357       .  S
C1162      F1167   1.357       .  S
C1163      C1164   1.400       .  A
C1164      F1165   1.354       .  S
C1169      C1170   1.405       .  A
C1169      C1174   1.396       .  A
C1169      F1176   1.358       .  S
C1171      C1172   1.402       .  A
C1171      F1178   1.357       .  S
C1172      F1177   1.358       .  S
C1173      C1174   1.409       .  A
C1174      F1175   1.358       .  S
C1179      C1184   1.402       .  A
C1179      F1186   1.357       .  S
C1180      C1181   1.410       .  A
C1181      C1182   1.394       .  A
C1181      F1188   1.358       .  S
C1182      C1183   1.400       .  A
C1182      F1187   1.358       .  S
C1184      F1185   1.357       .  S
C1189      C1190   1.401       .  A
C1189      C1194   1.395       .  A
C1189      F1196   1.358       .  S
C1191      C1192   1.403       .  A
C1191      F1198   1.358       .  S
C1192      F1197   1.357       .  S
C1193      C1194   1.409       .  A
C1194      F1195   1.358       .  S
C1199      C1204   1.394       .  A
C1199      F1206   1.358       .  S
C1200      C1201   1.403       .  A
C1201      C1202   1.404       .  A
C1201      F1208   1.357       .  S
C1202      C1203   1.408       .  A
C1202      F1207   1.357       .  S
C1204      F1205   1.358       .  S
