geometry optimzed in LAMMPS
_audit_creation_date              2020-11-30 
_audit_creation_method            'lammps2cif' 
_symmetry_space_group_name_H-M    'P1' 
_symmetry_Int_Tables_number       1 
_symmetry_cell_setting            triclinic 
loop_ 
_symmetry_equiv_pos_as_xyz 
  x,y,z 
_cell_length_a                    30.23821903 
_cell_length_b                    76.73982144371692 
_cell_length_c                    28.686465781364625 
_cell_angle_alpha                 90.19370964913064 
_cell_angle_beta                  90.26735975634399 
_cell_angle_gamma                 90.30932804722384 
loop_ 
_atom_site_label 
_atom_site_type_symbol 
_atom_site_fract_x 
_atom_site_fract_y 
_atom_site_fract_z 
_atom_site_charge 
C1          C  0.32640759  0.33943733  0.48770894     0.04000
C2          C  0.30153817  0.32396645  0.49075995    -0.12200
C3          C  0.25512722  0.32456882  0.49129090     0.01500
C4          C  0.23409779  0.34079348  0.49077734    -0.10700
C5          C  0.25830912  0.35626099  0.48582931     0.04000
C6          C  0.30462325  0.35552684  0.48433974    -0.10100
H7          H  0.31823203  0.31151164  0.49117353     0.09600
H8          H  0.19836298  0.34138097  0.49310485     0.07100
H9          H  0.32372073  0.36739539  0.47999379     0.06900
C10         C  0.33445346  0.63090283  0.47033672     0.04000
C11         C  0.31117371  0.64671758  0.47225852    -0.12200
C12         C  0.26478472  0.64676158  0.47209953     0.01500
C13         C  0.24171972  0.63090143  0.47044262    -0.10700
C14         C  0.26423297  0.61504076  0.46848201     0.04000
C15         C  0.31071982  0.61505561  0.46813259    -0.10100
H16         H  0.32912293  0.65895835  0.47446123     0.09600
H17         H  0.20587106  0.63087779  0.47147175     0.07100
H18         H  0.32831089  0.60280419  0.46665721     0.06900
C19         C  0.66889815  0.62992044  0.46479938     0.04000
C20         C  0.68926681  0.61387768  0.45539309    -0.12200
C21         C  0.73544503  0.61248550  0.45528249     0.01500
C22         C  0.76138887  0.62724000  0.46489017    -0.10700
C23         C  0.74189968  0.64313229  0.47737547     0.04000
C24         C  0.69544755  0.64446679  0.47647549    -0.10100
H25         H  0.66917134  0.60238830  0.44878261     0.09600
H26         H  0.79708314  0.62610005  0.46480581     0.07100
H27         H  0.67992419  0.65670121  0.48553494     0.06900
O28         O  0.04597614  0.50407586  0.42488830    -0.72100
O29         O  0.95075699  0.46719377  0.42651286    -0.73100
O30         O  0.95229734  0.50405330  0.42500054    -0.61700
O31         O  0.04494841  0.46691023  0.42616191    -0.70100
O32         O  0.04600716  0.46756513  0.50328975    -0.69700
O33         O  0.95198440  0.50422671  0.50223960    -0.60900
O34         O  0.95238867  0.46720127  0.50386147    -0.73400
O35         O  0.04590514  0.50453865  0.50214433    -0.72200
Cu36       Cu  0.99853491  0.48552731  0.42294862     1.04600
Cu37       Cu  0.99911929  0.48590800  0.50555071     1.04300
C38         C  0.06076073  0.51024508  0.46342317     0.94100
C39         C  0.93656746  0.46139423  0.46544161     0.93200
C40         C  0.93748160  0.51006122  0.46342290     0.85400
C41         C  0.06019201  0.46128149  0.46487064     0.91700
C42         C  0.65957029  0.34240190  0.47396792     0.04000
C43         C  0.68192633  0.35836794  0.46780522    -0.12200
C44         C  0.72825985  0.35903967  0.46850391     0.01500
C45         C  0.75231827  0.34378109  0.47593262    -0.10700
C46         C  0.73064946  0.32784088  0.48315170     0.04000
C47         C  0.68423623  0.32718599  0.48201141    -0.10100
H48         H  0.66336298  0.37023509  0.46235659     0.09600
H49         H  0.78814603  0.34439922  0.47717552     0.07100
H50         H  0.66735447  0.31496221  0.48869177     0.06900
C51         C  0.98646839  0.21057208  0.59403014     0.87300
C52         C  0.02833944  0.22194391  0.58679204    -0.52900
C53         C  0.02883577  0.23098448  0.54587729     0.10300
C54         C  0.98769092  0.22783849  0.51542296     0.21200
C55         C  0.94798818  0.22330846  0.58794800    -0.53600
C56         C  0.94830205  0.23221170  0.54701860     0.10400
C57         C  0.98502724  0.19894030  0.55025859    -0.53200
C58         C  0.98607684  0.20790696  0.50901903     0.10900
H59         H  0.05593760  0.22290882  0.61006894     0.15500
H60         H  0.98767082  0.23534157  0.48243787     0.01200
H61         H  0.92290997  0.22539863  0.61432233     0.15800
H62         H  0.98367948  0.18483437  0.55187961     0.15500
C63         C  0.00530575  0.76036960  0.60030363     0.87300
C64         C  0.96450739  0.74835202  0.59497030    -0.52900
C65         C  0.96244509  0.73916104  0.55394818     0.10300
C66         C  0.00263737  0.74258475  0.52233002     0.21200
C67         C  0.04459948  0.74782173  0.59353434    -0.53600
C68         C  0.04317141  0.73864759  0.55287627     0.10400
C69         C  0.00541056  0.77167921  0.55633699    -0.53200
C70         C  0.00367254  0.76249710  0.51539938     0.10900
H71         H  0.93950506  0.74718202  0.62175750     0.15500
H72         H  0.00257860  0.73493419  0.48951365     0.01200
H73         H  0.07073413  0.74555167  0.61865439     0.15800
H74         H  0.00793618  0.78578669  0.55770483     0.15500
N75         N  0.97475028  0.12500189  0.95422505    -0.26400
N76         N  0.96932294  0.13988198  0.97683444    -0.33300
C77         C  0.96601592  0.15288459  0.94563087     0.01900
C78         C  0.97022968  0.14585811  0.90138003     0.07900
C79         C  0.97541141  0.12814816  0.90819037    -0.05200
H80         H  0.96249456  0.16651391  0.95456157     0.08600
H81         H  0.97992928  0.11826993  0.88166690     0.09800
Cu82       Cu  0.97033694  0.14198634  0.04906970     0.44200
Cu83       Cu  0.98323289  0.10105669  0.98618789     0.42000
Cu84       Cu  0.99748023  0.10199449  0.11038108     0.43900
N85         N  0.97688438  0.14032797  0.12106537    -0.33800
N86         N  0.98727016  0.12579636  0.14307842    -0.28100
C87         C  0.98929741  0.12902323  0.18910713    -0.04200
C88         C  0.97920086  0.14639562  0.19675603     0.08000
C89         C  0.97200766  0.15318794  0.15264173     0.01800
H90         H  0.99807002  0.11940895  0.21497839     0.09500
H91         H  0.96356674  0.16648448  0.14409231     0.08600
N92         N  0.00114545  0.07931302  0.07102891    -0.35300
N93         N  0.99461911  0.07890551  0.02550819    -0.27500
C94         C  0.99614732  0.06228018  0.01066937    -0.02700
C95         C  0.00481400  0.05160902  0.04861155     0.05900
C96         C  0.00747082  0.06296953  0.08632985     0.04000
H97         H  0.98985918  0.05830634  0.97505342     0.09100
H98         H  0.01285638  0.05961995  0.12249707     0.07900
N99         N  0.99465494  0.84523122  0.96364895    -0.26400
N100        N  0.99882082  0.83032677  0.98614762    -0.34300
C101        C  0.99908229  0.81718648  0.95499557     0.01900
C102        C  0.99461736  0.82414176  0.91067812     0.07900
C103        C  0.99209843  0.84197851  0.91766605    -0.05200
H104        H  0.00375563  0.80364534  0.96399594     0.08600
H105        H  0.98927186  0.85193102  0.89121534     0.09800
Cu106      Cu  0.00598765  0.82860818  0.05796083     0.44200
Cu107      Cu  0.99563588  0.86945530  0.99570044     0.42000
Cu108      Cu  0.00590962  0.86982207  0.12079794     0.43900
N109        N  0.01134049  0.83067434  0.12992133    -0.33800
N110        N  0.01022278  0.84564883  0.15273434    -0.28100
C111        C  0.01264505  0.84249652  0.19872538    -0.04200
C112        C  0.01630348  0.82465349  0.20546834     0.08000
C113        C  0.01497149  0.81761458  0.16083814     0.01800
H114        H  0.01070917  0.85253348  0.22514439     0.09500
H115        H  0.01628666  0.80397151  0.15138313     0.08600
N116        N  0.00454334  0.89228781  0.08071431    -0.35300
N117        N  0.00088732  0.89211259  0.03481110    -0.27500
C118        C  0.00149498  0.90859735  0.01910689    -0.02700
C119        C  0.00607785  0.91976613  0.05690689     0.05900
C120        C  0.00747566  0.90891286  0.09547178     0.04000
H121        H  0.99900669  0.91216876  0.98274273     0.09100
H122        H  0.00974048  0.91276968  0.13170406     0.07900
C123        C  0.02701906  0.96743677  0.08832248    -0.13500
C124        C  0.00087526  0.97594450  0.05495525     0.16900
C125        C  0.97748374  0.96591118  0.02152580     0.03200
C126        C  0.98093677  0.94768955  0.02213924    -0.12000
C127        C  0.00651074  0.93912506  0.05598098    -0.03100
C128        C  0.03033051  0.94921004  0.08910867     0.02400
C129        C  0.00105463  0.99532383  0.05363337     0.09200
N130        N  0.94907798  0.97396719  0.98772012     0.65600
H131        H  0.96199043  0.94013870  0.99701119     0.18500
N132        N  0.05981604  0.94131551  0.12208603     0.76100
H133        H  0.04624631  0.97508823  0.11302516     0.10000
C134        C  0.99065424  0.00540879  0.09328308     0.03700
C135        C  0.99355848  0.02363188  0.09105372    -0.05000
C136        C  0.00625456  0.03219873  0.04989952    -0.23400
C137        C  0.01784669  0.02200446  0.01055576     0.13000
C138        C  0.01468445  0.00377521  0.01281590    -0.12500
N139        N  0.97583952  0.99739421  0.13559580     0.64600
H140        H  0.98401502  0.03112281  0.12138676     0.12500
N141        N  0.03503481  0.02976075  0.96893463     0.61300
H142        H  0.02437161  0.99607241  0.98285348     0.08700
O143        O  0.06090882  0.94664994  0.16375768    -0.40200
O144        O  0.08887979  0.93075825  0.10829645    -0.39400
O145        O  0.94801345  0.96839449  0.94627242    -0.39400
O146        O  0.92219338  0.98561823  0.00006361    -0.37100
O147        O  0.06761421  0.04008680  0.97135194    -0.38000
O148        O  0.02212081  0.02437618  0.92949633    -0.34100
O149        O  0.99082525  0.00255030  0.17443378    -0.35500
O150        O  0.94536009  0.98608989  0.13456185    -0.39800
C151        C  0.96618092  0.78847721  0.70409673    -0.13500
C152        C  0.00385762  0.78905073  0.73235182     0.16900
C153        C  0.04325147  0.78151455  0.71648911     0.03200
C154        C  0.04393745  0.77299926  0.67320929    -0.12000
C155        C  0.00537398  0.77130832  0.64542348    -0.03100
C156        C  0.96673834  0.78011734  0.66064501     0.02400
C157        C  0.00173053  0.79816199  0.77767346     0.09200
N158        N  0.08258544  0.78209219  0.74446568     0.65600
H159        H  0.07522461  0.76784388  0.66200494     0.18500
N160        N  0.92792078  0.78110998  0.63216589     0.76100
H161        H  0.93625826  0.79489683  0.71552712     0.10000
C162        C  0.01911555  0.81508348  0.78357962     0.03700
C163        C  0.01647573  0.82322234  0.82724519    -0.05000
C164        C  0.99618005  0.81489091  0.86521001    -0.23400
C165        C  0.97880510  0.79786411  0.85903384     0.13000
C166        C  0.98211259  0.78966476  0.81545061    -0.12500
N167        N  0.03899452  0.82421093  0.74548064     0.64600
H168        H  0.03033759  0.83618314  0.83139058     0.12500
N169        N  0.95611411  0.78898324  0.89577966     0.61300
H170        H  0.96854257  0.77667200  0.81072090     0.08700
O171        O  0.89179074  0.77516408  0.64740050    -0.40200
O172        O  0.92718916  0.79183188  0.59899362    -0.39400
O173        O  0.08310447  0.77494486  0.78402710    -0.39400
O174        O  0.11796967  0.78822020  0.72790085    -0.37100
O175        O  0.96516483  0.77330024  0.90469061    -0.38000
O176        O  0.92298710  0.79592559  0.91478305    -0.34100
O177        O  0.01696290  0.82704923  0.70883069    -0.35500
O178        O  0.07676833  0.83107752  0.75030888    -0.39800
C179        C  0.03117163  0.81346786  0.33412093    -0.13500
C180        C  0.01312676  0.79663668  0.33572510     0.16900
C181        C  0.99696774  0.78883065  0.29431629     0.03200
C182        C  0.99998671  0.79801243  0.25215863    -0.12000
C183        C  0.01774601  0.81499169  0.25041630    -0.03100
C184        C  0.03419569  0.82263260  0.29209325     0.02400
C185        C  0.01167194  0.78760021  0.38129491     0.09200
N186        N  0.97597701  0.77197085  0.29469218     0.65600
H187        H  0.98639207  0.79209205  0.22088933     0.18500
N188        N  0.05570426  0.83932036  0.29235296     0.76100
H189        H  0.04410814  0.81936502  0.36579451     0.10000
C190        C  0.03453031  0.77188260  0.38967293     0.03700
C191        C  0.03047596  0.76372491  0.43325656    -0.05000
C192        C  0.00448099  0.77098426  0.46876019    -0.23400
C193        C  0.98095979  0.78650308  0.45962791     0.13000
C194        C  0.98549301  0.79476096  0.41651526    -0.12500
N195        N  0.06272590  0.76431485  0.35496653     0.64600
H196        H  0.04913952  0.75198219  0.43998267     0.12500
N197        N  0.94997862  0.79340264  0.49235403     0.61300
H198        H  0.96698728  0.80655030  0.40970666     0.08700
O199        O  0.08857485  0.84201256  0.26633225    -0.40200
O200        O  0.04590931  0.85049039  0.32297025    -0.39400
O201        O  0.94908269  0.76801454  0.32653867    -0.39400
O202        O  0.98071257  0.76168164  0.26066791    -0.37100
O203        O  0.94991079  0.80951258  0.50141789    -0.38000
O204        O  0.91819285  0.78401392  0.50592357    -0.34100
O205        O  0.08853220  0.77380833  0.33152760    -0.35500
O206        O  0.06476857  0.74796608  0.35051845    -0.39800
C207        C  0.94169820  0.18093009  0.69198129    -0.13500
C208        C  0.97345723  0.18324946  0.72709376     0.16900
C209        C  0.00995087  0.19419421  0.71908550     0.03200
C210        C  0.01457723  0.20255844  0.67610488    -0.12000
C211        C  0.98278567  0.20046442  0.64013751    -0.03100
C212        C  0.94584274  0.18942549  0.64894943     0.02400
C213        C  0.97036417  0.17317213  0.77080657     0.09200
N214        N  0.04234801  0.19730081  0.75484420     0.65600
H215        H  0.04224365  0.21089953  0.67296399     0.18500
N216        N  0.91209264  0.18659550  0.61457949     0.76100
H217        H  0.91380363  0.17234719  0.69781570     0.10000
C218        C  0.93897532  0.17717738  0.80520673     0.03700
C219        C  0.93979579  0.16834145  0.84790050    -0.05000
C220        C  0.97125465  0.15532451  0.85657237    -0.23400
C221        C  0.00253657  0.15123397  0.82177862     0.13000
C222        C  0.00153351  0.16010944  0.77923059    -0.12500
N223        N  0.90680332  0.19043900  0.79753699     0.64600
H224        H  0.91549826  0.17153122  0.87419026     0.12500
N225        N  0.03701421  0.13885272  0.82998874     0.61300
H226        H  0.02618591  0.15721023  0.75305252     0.08700
O227        O  0.91131989  0.17241730  0.59217277    -0.40200
O228        O  0.87783563  0.19590799  0.61523152    -0.39400
O229        O  0.08287381  0.19515878  0.74638932    -0.39400
O230        O  0.03086146  0.20379376  0.79339759    -0.37100
O231        O  0.04554161  0.12742327  0.79963812    -0.38000
O232        O  0.06252623  0.14069021  0.86463993    -0.34100
O233        O  0.86898815  0.18640943  0.78201332    -0.35500
O234        O  0.91463425  0.20588056  0.81050111    -0.39800
C235        C  0.01043561  0.17625093  0.40972958    -0.13500
C236        C  0.98386164  0.18296399  0.37395776     0.16900
C237        C  0.95822005  0.19797705  0.38256227     0.03200
C238        C  0.96063265  0.20611250  0.42645122    -0.12000
C239        C  0.98695791  0.19931042  0.46245013    -0.03100
C240        C  0.01262432  0.18428457  0.45362003     0.02400
C241        C  0.98352165  0.17393488  0.32807647     0.09200
N242        N  0.92835040  0.20467185  0.34796331     0.65600
H243        H  0.94020341  0.21739516  0.43314758     0.18500
N244        N  0.04213859  0.17730621  0.48805795     0.76100
H245        H  0.03050075  0.16485657  0.40305322     0.10000
C246        C  0.99622654  0.18235291  0.28640271     0.03700
C247        C  0.99283920  0.17328258  0.24385486    -0.05000
C248        C  0.97833640  0.15585200  0.24205028    -0.23400
C249        C  0.96559628  0.14754132  0.28390025     0.13000
C250        C  0.96882144  0.15660127  0.32626738    -0.12500
N251        N  0.01398130  0.19977496  0.28682999     0.64600
H252        H  0.00350654  0.17966395  0.21218389     0.12500
N253        N  0.94729733  0.13025819  0.28394340     0.61300
H254        H  0.95833115  0.15023381  0.35806051     0.08700
O255        O  0.04302594  0.16109943  0.49534060    -0.40200
O256        O  0.07028701  0.18702991  0.50797324    -0.39400
O257        O  0.90354811  0.19443853  0.32512041    -0.39400
O258        O  0.92324092  0.22090563  0.34369278    -0.37100
O259        O  0.95913475  0.11948339  0.31466819    -0.38000
O260        O  0.91513668  0.12650732  0.25747230    -0.34100
O261        O  0.04132231  0.20441537  0.31793388    -0.35500
O262        O  0.00597496  0.20998684  0.25345888    -0.39800
C263        C  0.78245890  0.28271970  0.48019144    -0.13500
C264        C  0.81294996  0.28404980  0.51717359     0.16900
C265        C  0.81369632  0.29933290  0.54484799     0.03200
C266        C  0.78637544  0.31331301  0.53289232    -0.12000
C267        C  0.75716379  0.31226233  0.49484154    -0.03100
C268        C  0.75441951  0.29662456  0.46883459     0.02400
C269        C  0.84696371  0.27029557  0.52330335     0.09200
N270        N  0.84168812  0.30078169  0.58531238     0.65600
H271        H  0.78750667  0.32509080  0.55384373     0.18500
N272        N  0.72535519  0.29498125  0.42936839     0.76100
H273        H  0.78204902  0.27113821  0.45848011     0.10000
C274        C  0.83574113  0.25249508  0.52843280     0.03700
C275        C  0.86945626  0.24016999  0.53439692    -0.05000
C276        C  0.91408597  0.24527097  0.53579647    -0.23400
C277        C  0.92523362  0.26291009  0.52949707     0.13000
C278        C  0.89182658  0.27519019  0.52274416    -0.12500
N279        N  0.79049639  0.24680884  0.52923744     0.64600
H280        H  0.86076139  0.22658471  0.53939231     0.12500
N281        N  0.97003171  0.26874309  0.53350475     0.61300
H282        H  0.90095871  0.28875213  0.51817196     0.08700
O283        O  0.70364480  0.28107588  0.42294201    -0.40200
O284        O  0.72494213  0.30658103  0.39828041    -0.39400
O285        O  0.86039255  0.31508776  0.59512312    -0.39400
O286        O  0.84450680  0.28828121  0.61365728    -0.37100
O287        O  0.98999614  0.27434617  0.49801179    -0.38000
O288        O  0.98660967  0.27123006  0.57343499    -0.34100
O289        O  0.77856403  0.23361189  0.50589409    -0.35500
O290        O  0.76315371  0.25408870  0.55601059    -0.39800
C291        C  0.83688097  0.43337264  0.43368945    -0.13500
C292        C  0.84201703  0.41936139  0.46447409     0.16900
C293        C  0.87809860  0.41930768  0.49601587     0.03200
C294        C  0.90731639  0.43358754  0.49706584    -0.12000
C295        C  0.90236080  0.44756014  0.46608470    -0.03100
C296        C  0.86648858  0.44750953  0.43440358     0.02400
C297        C  0.80869998  0.40511795  0.46404544     0.09200
N298        N  0.88648652  0.40461687  0.52570758     0.65600
H299        H  0.93538152  0.43339920  0.52069376     0.18500
N300        N  0.85858409  0.46205434  0.40434422     0.76100
H301        H  0.80895640  0.43353032  0.40987108     0.10000
C302        C  0.78147819  0.40177840  0.50303326     0.03700
C303        C  0.75373241  0.38704822  0.50280817    -0.05000
C304        C  0.75235653  0.37573682  0.46438207    -0.23400
C305        C  0.77866560  0.37932957  0.42515418     0.13000
C306        C  0.80655021  0.39396521  0.42525704    -0.12500
N307        N  0.78229265  0.41298826  0.54322721     0.64600
H308        H  0.73385147  0.38415800  0.53318588     0.12500
N309        N  0.77801649  0.36797457  0.38549486     0.61300
H310        H  0.82745384  0.39642478  0.39537615     0.08700
O311        O  0.85434461  0.47713910  0.42139729    -0.40200
O312        O  0.85117304  0.45961075  0.36148080    -0.39400
O313        O  0.88255736  0.38929041  0.51001639    -0.39400
O314        O  0.90275231  0.40690126  0.56588868    -0.37100
O315        O  0.74282204  0.36589101  0.36227294    -0.38000
O316        O  0.81310795  0.36067492  0.37226636    -0.34100
O317        O  0.78145540  0.42933025  0.53845456    -0.35500
O318        O  0.78038061  0.40657847  0.58364915    -0.39800
C319        C  0.83566335  0.66955940  0.53258541    -0.13500
C320        C  0.82796236  0.68626653  0.51467999     0.16900
C321        C  0.79073842  0.68888826  0.48542933     0.03200
C322        C  0.76306172  0.67470569  0.47395069    -0.12000
C323        C  0.77050805  0.65804082  0.49245513    -0.03100
C324        C  0.80669718  0.65564872  0.52334974     0.02400
C325        C  0.86040446  0.70047428  0.52550446     0.09200
N326        N  0.78016480  0.70585026  0.46774726     0.65600
H327        H  0.73541411  0.67673440  0.45046936     0.18500
N328        N  0.81380027  0.63937942  0.54680796     0.76100
H329        H  0.86415082  0.66737180  0.55480900     0.10000
C330        C  0.87474264  0.70396953  0.57161191     0.03700
C331        C  0.90798061  0.71645867  0.57964912    -0.05000
C332        C  0.92630847  0.72628096  0.54308296    -0.23400
C333        C  0.91091708  0.72307290  0.49708843     0.13000
C334        C  0.87931404  0.70994536  0.48881033    -0.12500
N335        N  0.85552123  0.69516039  0.61074259     0.64600
H336        H  0.91950969  0.71844291  0.61505579     0.12500
N337        N  0.92499908  0.73352875  0.45860742     0.61300
H338        H  0.86882625  0.70732244  0.45329526     0.08700
O339        O  0.85252147  0.63361344  0.55209596    -0.40200
O340        O  0.78200373  0.63166316  0.56646566    -0.39400
O341        O  0.76715276  0.70759162  0.42615109    -0.39400
O342        O  0.78003367  0.71889228  0.49469069    -0.37100
O343        O  0.93638794  0.72635214  0.42089495    -0.38000
O344        O  0.91868742  0.74975748  0.45946566    -0.34100
O345        O  0.87982016  0.68980418  0.64354995    -0.35500
O346        O  0.81402942  0.69400732  0.61452303    -0.39800
C347        C  0.81643006  0.57717140  0.42091679    -0.13500
C348        C  0.80593580  0.56416472  0.45331480     0.16900
C349        C  0.77008446  0.56657229  0.48372093     0.03200
C350        C  0.74599678  0.58209019  0.48207522    -0.12000
C351        C  0.75702799  0.59530971  0.45037104    -0.03100
C352        C  0.79223498  0.59267502  0.41892927     0.02400
C353        C  0.83565264  0.54900590  0.45768038     0.09200
N354        N  0.75840301  0.55348928  0.51693022     0.65600
H355        H  0.71944418  0.58407237  0.50675143     0.18500
N356        N  0.80412924  0.60569051  0.38539492     0.76100
H357        H  0.84416915  0.57537079  0.39762525     0.10000
C358        C  0.84193610  0.53739176  0.42020711     0.03700
C359        C  0.87560949  0.52495924  0.42284044    -0.05000
C360        C  0.90296109  0.52370067  0.46247043    -0.23400
C361        C  0.89611345  0.53525648  0.50031752     0.13000
C362        C  0.86221338  0.54761235  0.49765721    -0.12500
N363        N  0.81406308  0.53797638  0.37962226     0.64600
H364        H  0.87986703  0.51599900  0.39395210     0.12500
N365        N  0.92491910  0.53547157  0.54019942     0.61300
H366        H  0.85819388  0.55687462  0.52591708     0.08700
O367        O  0.84425045  0.60963893  0.37917873    -0.40200
O368        O  0.77485146  0.61248309  0.35986296    -0.39400
O369        O  0.75899150  0.55698763  0.55994454    -0.39400
O370        O  0.74511106  0.53871539  0.50320138    -0.37100
O371        O  0.96604039  0.53753080  0.53485090    -0.38000
O372        O  0.90886140  0.53644970  0.58065779    -0.34100
O373        O  0.83048447  0.53622093  0.33951790    -0.35500
O374        O  0.77259452  0.53882150  0.38392240    -0.39800
C375        C  0.45464996  0.62255427  0.50366925    -0.13500
C376        C  0.47712843  0.63234842  0.46988984     0.16900
C377        C  0.45247784  0.64145807  0.43599637     0.03200
C378        C  0.40612941  0.64067391  0.43659074    -0.12000
C379        C  0.38358377  0.63110857  0.47076454    -0.03100
C380        C  0.40823352  0.62197927  0.50467356     0.02400
C381        C  0.52628996  0.63216385  0.46879911     0.09200
N382        N  0.47407506  0.65179818  0.40130137     0.65600
H383        H  0.38752779  0.64772005  0.41041324     0.18500
N384        N  0.38662941  0.61254703  0.54112772     0.76100
H385        H  0.47331246  0.61542181  0.52962153     0.10000
C386        C  0.55199844  0.63842472  0.50650760     0.03700
C387        C  0.59831357  0.63779823  0.50425206    -0.05000
C388        C  0.61979148  0.63112846  0.46475176    -0.23400
C389        C  0.59394047  0.62479643  0.42699091     0.13000
C390        C  0.54763851  0.62524181  0.42964456    -0.12500
N391        N  0.53153673  0.64569444  0.54696729     0.64600
H392        H  0.61765054  0.64248851  0.53366542     0.12500
N393        N  0.61409892  0.61820326  0.38539601     0.61300
H394        H  0.52808144  0.62032214  0.40065433     0.08700
O395        O  0.36132269  0.62038569  0.56898143    -0.40200
O396        O  0.39589130  0.59675333  0.54814882    -0.39400
O397        O  0.46424944  0.64983404  0.35879243    -0.39400
O398        O  0.50061157  0.66376707  0.41330396    -0.37100
O399        O  0.64283706  0.62715929  0.36434385    -0.38000
O400        O  0.60042324  0.60413404  0.36736261    -0.34100
O401        O  0.53938321  0.63935951  0.58667690    -0.35500
O402        O  0.50904122  0.65944156  0.54361907    -0.39800
C403        C  0.17468174  0.68035412  0.45887993    -0.13500
C404        C  0.17940279  0.68976548  0.50063070     0.16900
C405        C  0.21552060  0.68611492  0.53065215     0.03200
C406        C  0.24560803  0.67304039  0.51817657    -0.12000
C407        C  0.23950030  0.66310610  0.47751526    -0.03100
C408        C  0.20433636  0.66714450  0.44693004     0.02400
C409        C  0.14516172  0.70285490  0.51239391     0.09200
N410        N  0.22062072  0.69466472  0.57503876     0.65600
H411        H  0.27193652  0.66965990  0.54221023     0.18500
N412        N  0.19810564  0.65778485  0.40397865     0.76100
H413        H  0.14750774  0.68328297  0.43545759     0.10000
C414        C  0.15568243  0.72048631  0.52222822     0.03700
C415        C  0.12195655  0.73180996  0.53655770    -0.05000
C416        C  0.07793904  0.72606277  0.53974632    -0.23400
C417        C  0.06747248  0.70859819  0.52912730     0.13000
C418        C  0.10100488  0.69722072  0.51534698    -0.12500
N419        N  0.19989834  0.72714394  0.51687339     0.64600
H420        H  0.12980953  0.74534447  0.54386736     0.12500
N421        N  0.02356027  0.70195108  0.53519476     0.61300
H422        H  0.09279478  0.68367771  0.50855122     0.08700
O423        O  0.15980419  0.65314822  0.39116482    -0.40200
O424        O  0.23045453  0.65514541  0.37725291    -0.39400
O425        O  0.18762224  0.69685466  0.60117159    -0.39400
O426        O  0.25879894  0.69809047  0.59068087    -0.37100
O427        O  0.00506501  0.69337514  0.50286982    -0.38000
O428        O  0.00617075  0.70228187  0.57509234    -0.34100
O429        O  0.22311228  0.72255042  0.48253549    -0.35500
O430        O  0.21444448  0.73882189  0.54409223    -0.39800
C431        C  0.15159064  0.54186320  0.50135925    -0.13500
C432        C  0.15024353  0.55417339  0.46533660     0.16900
C433        C  0.12063368  0.55156280  0.42765994     0.03200
C434        C  0.09356990  0.53663204  0.42659467    -0.12000
C435        C  0.09409510  0.52452256  0.46323183    -0.03100
C436        C  0.12393385  0.52713656  0.50075440     0.02400
C437        C  0.18070507  0.56945212  0.46724984     0.09200
N438        N  0.11586302  0.56439219  0.39170573     0.65600
H439        H  0.07017086  0.53499909  0.39816676     0.18500
N440        N  0.12750690  0.51473917  0.53780983     0.76100
H441        H  0.17481952  0.54360053  0.52990805     0.10000
C442        C  0.18040148  0.58114875  0.50536083     0.03700
C443        C  0.20930818  0.59547958  0.50574605    -0.05000
C444        C  0.23812457  0.59864330  0.46846673    -0.23400
C445        C  0.23922095  0.58677616  0.43083807     0.13000
C446        C  0.21093709  0.57219149  0.43086490    -0.12500
N447        N  0.14983001  0.57904125  0.54301143     0.64600
H448        H  0.20823951  0.60458539  0.53468690     0.12500
N449        N  0.26725550  0.58978030  0.39151215     0.61300
H450        H  0.21166749  0.56318647  0.40170014     0.08700
O451        O  0.12655528  0.51980254  0.57970182    -0.40200
O452        O  0.13640664  0.49903461  0.52879260    -0.39400
O453        O  0.11145731  0.55970568  0.34971207    -0.39400
O454        O  0.11076994  0.58023316  0.40232941    -0.37100
O455        O  0.29196683  0.57778928  0.37672942    -0.38000
O456        O  0.26435700  0.60380999  0.36887467    -0.34100
O457        O  0.16322915  0.58014621  0.58466027    -0.35500
O458        O  0.10890880  0.57764604  0.53480744    -0.39800
C459        C  0.53966498  0.32941177  0.44987596    -0.13500
C460        C  0.51713387  0.34107720  0.47888759     0.16900
C461        C  0.54139109  0.35306649  0.50619534     0.03200
C462        C  0.58765210  0.35328652  0.50393178    -0.12000
C463        C  0.61044182  0.34182121  0.47436390    -0.03100
C464        C  0.58601205  0.32971958  0.44700542     0.02400
C465        C  0.46822025  0.34043518  0.48072236     0.09200
N466        N  0.51935840  0.36528701  0.53572160     0.65600
H467        H  0.60593431  0.36251029  0.52537395     0.18500
N468        N  0.60751339  0.31805476  0.41525904     0.76100
H469        H  0.52097788  0.32019517  0.42879982     0.10000
C470        C  0.44238756  0.34529098  0.44192479     0.03700
C471        C  0.39619334  0.34451818  0.44455594    -0.05000
C472        C  0.37518101  0.33887318  0.48531577    -0.23400
C473        C  0.40100125  0.33362075  0.52376865     0.13000
C474        C  0.44725294  0.33457670  0.52135207    -0.12500
N475        N  0.46265975  0.35153785  0.40020059     0.64600
H476        H  0.37654163  0.34862406  0.41490594     0.12500
N477        N  0.38065533  0.32777057  0.56582395     0.61300
H478        H  0.46692123  0.33066791  0.55117695     0.08700
O479        O  0.63582346  0.32379324  0.38690267    -0.40200
O480        O  0.59493744  0.30237871  0.41211890    -0.39400
O481        O  0.52689093  0.36537871  0.57902351    -0.39400
O482        O  0.49446004  0.37670421  0.51822356    -0.37100
O483        O  0.37888551  0.33782686  0.60064203    -0.38000
O484        O  0.37080515  0.31187422  0.57049097    -0.34100
O485        O  0.45584138  0.34375227  0.36200309    -0.35500
O486        O  0.48393675  0.36573096  0.40068922    -0.39800
C487        C  0.11723231  0.25658021  0.48058876    -0.13500
C488        C  0.13256842  0.26788280  0.51573470     0.16900
C489        C  0.11308820  0.26725170  0.56038704     0.03200
C490        C  0.08042540  0.25473593  0.56937485    -0.12000
C491        C  0.06509474  0.24335408  0.53436236    -0.03100
C492        C  0.08367134  0.24439576  0.48942054     0.02400
C493        C  0.16833493  0.28048743  0.50498341     0.09200
N494        N  0.12475260  0.27959462  0.59628667     0.65600
H495        H  0.06535941  0.25442714  0.60357269     0.18500
N496        N  0.07059508  0.23264823  0.45306407     0.76100
H497        H  0.13199678  0.25703227  0.44624871     0.10000
C498        C  0.20798330  0.28132537  0.53136016     0.03700
C499        C  0.23684355  0.29552888  0.52513123    -0.05000
C500        C  0.22780281  0.30844442  0.49193516    -0.23400
C501        C  0.19026231  0.30656260  0.46255853     0.13000
C502        C  0.16061338  0.29281970  0.47010345    -0.12500
N503        N  0.21889793  0.26808382  0.56483806     0.64600
H504        H  0.26597674  0.29673301  0.54705660     0.12500
N505        N  0.18170473  0.31851447  0.42515277     0.61300
H506        H  0.13077154  0.29191623  0.44913309     0.08700
O507        O  0.08562155  0.21735123  0.45283500    -0.40200
O508        O  0.05236167  0.23851087  0.41674218    -0.39400
O509        O  0.12909251  0.29555576  0.58668689    -0.39400
O510        O  0.12548151  0.27494029  0.63845392    -0.37100
O511        O  0.21264665  0.32331590  0.39864849    -0.38000
O512        O  0.14263589  0.32321811  0.41620133    -0.34100
O513        O  0.20995287  0.25228354  0.55650849    -0.35500
O514        O  0.24093271  0.27192152  0.60096735    -0.39800
C515        C  0.14286120  0.42655791  0.42743588    -0.13500
C516        C  0.15068241  0.41800049  0.46978812     0.16900
C517        C  0.13013164  0.42418393  0.51068530     0.03200
C518        C  0.10248080  0.43874692  0.50836604    -0.12000
C519        C  0.09342027  0.44705052  0.46575931    -0.03100
C520        C  0.11437363  0.44086065  0.42494491     0.02400
C521        C  0.18047129  0.40268201  0.47087325     0.09200
N522        N  0.13525841  0.41534163  0.55436862     0.65600
H523        H  0.08637375  0.44306690  0.53998430     0.18500
N524        N  0.10743137  0.44894661  0.38070557     0.76100
H525        H  0.15904321  0.42208772  0.39598915     0.10000
C526        C  0.17259353  0.38798647  0.44221893     0.03700
C527        C  0.19984620  0.37339942  0.44636951    -0.05000
C528        C  0.23410712  0.37285146  0.47957487    -0.23400
C529        C  0.24309888  0.38777662  0.50695581     0.13000
C530        C  0.21674047  0.40263242  0.50171874    -0.12500
N531        N  0.13591969  0.38731499  0.41036789     0.64600
H532        H  0.19308556  0.36208893  0.42468889     0.12500
N533        N  0.27700212  0.38772999  0.54198556     0.61300
H534        H  0.22339797  0.41396111  0.52334625     0.08700
O535        O  0.08716318  0.44079158  0.34878097    -0.40200
O536        O  0.12656415  0.46317586  0.37155794    -0.39400
O537        O  0.14211113  0.42395935  0.59128169    -0.39400
O538        O  0.12843460  0.39912758  0.55692389    -0.37100
O539        O  0.30570977  0.39972593  0.54301618    -0.38000
O540        O  0.27551392  0.37682050  0.57478284    -0.34100
O541        O  0.14160403  0.38217682  0.36898957    -0.35500
O542        O  0.09716900  0.39003101  0.42476391    -0.39800
loop_ 
_geom_bond_atom_site_label_1 
_geom_bond_atom_site_label_2 
_geom_bond_distance 
_geom_bond_site_symmetry_2 
_ccdc_geom_bond_type 
C1            C2   1.405       .  A
C1            C6   1.406       .  A
C1          C472   1.478       .  S
C2            C3   1.405       .  A
C2            H7   1.083       .  S
C3            C4   1.401       .  A
C3          C500   1.484       .  S
C4            C5   1.399       .  A
C4            H8   1.084       .  S
C5            C6   1.403       .  A
C5          C528   1.483       .  S
C6            H9   1.084       .  S
C10          C11   1.407       .  A
C10          C15   1.410       .  A
C10         C379   1.486       .  S
C11          C12   1.403       .  A
C11          H16   1.084       .  S
C12          C13   1.400       .  A
C12         C407   1.481       .  S
C13          C14   1.399       .  A
C13          H17   1.085       .  S
C14          C15   1.406       .  A
C14         C444   1.482       .  S
C15          H18   1.084       .  S
C19          C20   1.405       .  A
C19          C24   1.410       .  A
C19         C388   1.488       .  S
C20          C21   1.401       .  A
C20          H25   1.084       .  S
C21          C22   1.400       .  A
C21         C351   1.481       .  S
C22          C23   1.403       .  A
C22          H26   1.083       .  S
C23          C24   1.409       .  A
C23         C323   1.492       .  S
C24          H27   1.083       .  S
O28         Cu36   2.016   1_455  S
O28          C38   1.279       .  A
O29         Cu36   2.014       .  S
O29          C39   1.279       .  A
O30         Cu36   2.000       .  S
O30          C40   1.277       .  A
O31         Cu36   2.010   1_455  S
O31          C41   1.278       .  A
O32         Cu37   2.004   1_455  S
O32          C41   1.278       .  A
O33         Cu37   2.009       .  S
O33          C40   1.278       .  A
O34         Cu37   2.009       .  S
O34          C39   1.277       .  A
O35         Cu37   2.009   1_455  S
O35          C38   1.278       .  A
Cu36        Cu37   2.370       .  S
C38         C435   1.485       .  S
C39         C295   1.478       .  S
C40         C360   1.482       .  S
C41         C519   1.488       .  S
C42          C43   1.408       .  A
C42          C47   1.408       .  A
C42         C463   1.486       .  S
C43          C44   1.402       .  A
C43          H48   1.084       .  S
C44          C45   1.398       .  A
C44         C304   1.476       .  S
C45          C46   1.401       .  A
C45          H49   1.085       .  S
C46          C47   1.404       .  A
C46         C267   1.482       .  S
C47          H50   1.084       .  S
C51          C52   1.549   1_655  S
C51          C57   1.538       .  S
C51          C55   1.533       .  S
C51         C211   1.540       .  S
C52          H59   1.068       .  S
C52          C53   1.366       .  D
C53          C54   1.534   1_455  S
C53         C491   1.485       .  S
C54          C58   1.540       .  S
C54          C56   1.538       .  S
C54          H60   1.109       .  S
C55          H61   1.086       .  S
C55          C56   1.360       .  D
C56         C276   1.479       .  S
C57          H62   1.084       .  S
C57          C58   1.371       .  D
C58         C239   1.488       .  S
C63          C64   1.543   1_455  S
C63          C69   1.533       .  S
C63          C67   1.546       .  S
C63         C155   1.540       .  S
C64          H71   1.084       .  S
C64          C65   1.371       .  D
C65          C66   1.542   1_655  S
C65         C332   1.500       .  S
C66          C70   1.542       .  S
C66          C68   1.535       .  S
C66          H72   1.108       .  S
C67          H73   1.082       .  S
C67          C68   1.361       .  D
C68         C416   1.481       .  S
C69          H74   1.085       .  S
C69          C70   1.368       .  D
C70         C192   1.490       .  S
N75          N76   1.323       .  A
N75          C79   1.343       .  A
N75         Cu83   2.073       .  S
N76          C77   1.347       .  A
N76         Cu82   2.078   1_556  S
C77          C78   1.384       .  A
C77          H80   1.082       .  S
C78          C79   1.383       .  A
C78         C220   1.479       .  S
C79          H81   1.082       .  S
Cu82         N85   2.078       .  S
Cu83         N93   2.073   1_556  S
Cu84         N86   2.076       .  S
Cu84         N92   2.075   1_655  S
N85          N86   1.322       .  A
N85          C89   1.346       .  A
N86          C87   1.344       .  A
C87          C88   1.386       .  A
C87          H90   1.081       .  S
C88          C89   1.387       .  A
C88         C248   1.487       .  S
C89          H91   1.082       .  S
N92          N93   1.320   1_455  A
N92          C96   1.345       .  A
N93          C94   1.345       .  A
C94          C95   1.389   1_655  A
C94          H97   1.081   1_554  S
C95          C96   1.389       .  A
C95         C136   1.491       .  S
C96          H98   1.082       .  S
N99         N100   1.322       .  A
N99         C103   1.343       .  A
N99        Cu107   2.071       .  S
N100        C101   1.345       .  A
N100       Cu106   2.075   1_656  S
C101        C102   1.387       .  A
C101        H104   1.081   1_655  S
C102        C103   1.385       .  A
C102        C164   1.484       .  S
C103        H105   1.082       .  S
Cu106       N109   2.075       .  S
Cu107       N117   2.071   1_656  S
Cu108       N110   2.076       .  S
Cu108       N116   2.076       .  S
N109        N110   1.321       .  A
N109        C113   1.345       .  A
N110        C111   1.344       .  A
C111        C112   1.388       .  A
C111        H114   1.081       .  S
C112        C113   1.388       .  A
C112        C183   1.490       .  S
C113        H115   1.082       .  S
N116        N117   1.321       .  A
N116        C120   1.345       .  A
N117        C118   1.344       .  A
C118        C119   1.386       .  A
C118        H121   1.082   1_454  S
C119        C120   1.388       .  A
C119        C127   1.486       .  S
C120        H122   1.081       .  S
C123        C124   1.404       .  A
C123        C128   1.403       .  A
C123        H133   1.084       .  S
C124        C125   1.413   1_455  A
C124        C129   1.488       .  S
C125        C126   1.403       .  A
C125        N130   1.436   1_554  S
C126        C127   1.405   1_655  A
C126        H131   1.083   1_554  S
C127        C128   1.415       .  A
C128        N132   1.435       .  S
C129        C134   1.411   1_465  A
C129        C138   1.403   1_565  A
N130        O145   1.262       .  A
N130        O146   1.263   1_556  A
N132        O143   1.262       .  A
N132        O144   1.263       .  A
C134        C135   1.402       .  A
C134        N139   1.435   1_545  S
C135        C136   1.407   1_655  A
C135        H140   1.082       .  S
C136        C137   1.418       .  A
C137        C138   1.403       .  A
C137        N141   1.434   1_554  S
C138        H142   1.084   1_544  S
N139        O149   1.262   1_565  A
N139        O150   1.262       .  A
N141        O147   1.262       .  A
N141        O148   1.263       .  A
C151        C152   1.396   1_655  A
C151        C156   1.400       .  A
C151        H161   1.084       .  S
C152        C153   1.404       .  A
C152        C157   1.476       .  S
C153        C154   1.401       .  A
C153        N158   1.432       .  S
C154        C155   1.415       .  A
C154        H159   1.077       .  S
C155        C156   1.423   1_455  A
C156        N160   1.429       .  S
C157        C162   1.408       .  A
C157        C166   1.399   1_455  A
N158        O173   1.262       .  A
N158        O174   1.262       .  A
N160        O171   1.262       .  A
N160        O172   1.260       .  A
C162        C163   1.401       .  A
C162        N167   1.433       .  S
C163        C164   1.406   1_455  A
C163        H168   1.083       .  S
C164        C165   1.416       .  A
C165        C166   1.402       .  A
C165        N169   1.433       .  S
C166        H170   1.084       .  S
N167        O177   1.262       .  A
N167        O178   1.262       .  A
N169        O175   1.262       .  A
N169        O176   1.262       .  A
C179        C180   1.400       .  A
C179        C184   1.401       .  A
C179        H189   1.084       .  S
C180        C181   1.413   1_455  A
C180        C185   1.483       .  S
C181        C182   1.405       .  A
C181        N186   1.438       .  S
C182        C183   1.408   1_655  A
C182        H187   1.082       .  S
C183        C184   1.417       .  A
C184        N188   1.433       .  S
C185        C190   1.414       .  A
C185        C194   1.399   1_455  A
N186        O201   1.263       .  A
N186        O202   1.263       .  A
N188        O199   1.262       .  A
N188        O200   1.263       .  A
C190        C191   1.406       .  A
C190        N195   1.437       .  S
C191        C192   1.405       .  A
C191        H196   1.083       .  S
C192        C193   1.415   1_455  A
C193        C194   1.399       .  A
C193        N197   1.432       .  S
C194        H198   1.084       .  S
N195        O205   1.262       .  A
N195        O206   1.263       .  A
N197        O203   1.262       .  A
N197        O204   1.262       .  A
C207        C208   1.399       .  A
C207        C212   1.404       .  A
C207        H217   1.081       .  S
C208        C209   1.403   1_655  A
C208        C213   1.479       .  S
C209        C210   1.399       .  A
C209        N214   1.434       .  S
C210        C211   1.415   1_455  A
C210        H215   1.055       .  S
C211        C212   1.422       .  A
C212        N216   1.431       .  S
C213        C218   1.407       .  A
C213        C222   1.400   1_655  A
N214        O229   1.262       .  A
N214        O230   1.262       .  A
N216        O227   1.262       .  A
N216        O228   1.262       .  A
C218        C219   1.402       .  A
C218        N223   1.429       .  S
C219        C220   1.405       .  A
C219        H224   1.084       .  S
C220        C221   1.414   1_655  A
C221        C222   1.400       .  A
C221        N225   1.434       .  S
C222        H226   1.084       .  S
N223        O233   1.262       .  A
N223        O234   1.262       .  A
N225        O231   1.262       .  A
N225        O232   1.262       .  A
C235        C236   1.402   1_455  A
C235        C240   1.401       .  A
C235        H245   1.084       .  S
C236        C237   1.414       .  A
C236        C241   1.485       .  S
C237        C238   1.405       .  A
C237        N242   1.437       .  S
C238        C239   1.405       .  A
C238        H243   1.083       .  S
C239        C240   1.416   1_655  A
C240        N244   1.435       .  S
C241        C246   1.415       .  A
C241        C250   1.401       .  A
N242        O257   1.263       .  A
N242        O258   1.262       .  A
N244        O255   1.262       .  A
N244        O256   1.262       .  A
C246        C247   1.406       .  A
C246        N251   1.438   1_655  S
C247        C248   1.406       .  A
C247        H252   1.083   1_655  S
C248        C249   1.415       .  A
C249        C250   1.401       .  A
C249        N253   1.434       .  S
C250        H254   1.084       .  S
N251        O261   1.263       .  A
N251        O262   1.263       .  A
N253        O259   1.262       .  A
N253        O260   1.262       .  A
C263        C264   1.405       .  A
C263        C268   1.405       .  A
C263        H273   1.084       .  S
C264        C265   1.414       .  A
C264        C269   1.488       .  S
C265        C266   1.400       .  A
C265        N270   1.437       .  S
C266        C267   1.403       .  A
C266        H271   1.084       .  S
C267        C268   1.413       .  A
C268        N272   1.435       .  S
C269        C274   1.414       .  A
C269        C278   1.406       .  A
N270        O285   1.263       .  A
N270        O286   1.263       .  A
N272        O283   1.262       .  A
N272        O284   1.262       .  A
C274        C275   1.405       .  A
C274        N279   1.434       .  S
C275        C276   1.403       .  A
C275        H280   1.084       .  S
C276        C277   1.406       .  A
C277        C278   1.398       .  A
C277        N281   1.428       .  S
C278        H282   1.084       .  S
N279        O289   1.262       .  A
N279        O290   1.262       .  A
N281        O287   1.262       .  A
N281        O288   1.262       .  A
C291        C292   1.403       .  A
C291        C296   1.403       .  A
C291        H301   1.084       .  S
C292        C293   1.414       .  A
C292        C297   1.482       .  S
C293        C294   1.404       .  A
C293        N298   1.438       .  S
C294        C295   1.403       .  A
C294        H299   1.084       .  S
C295        C296   1.412       .  A
C296        N300   1.433       .  S
C297        C302   1.415       .  A
C297        C306   1.403       .  A
N298        O313   1.263       .  A
N298        O314   1.262       .  A
N300        O311   1.263       .  A
N300        O312   1.262       .  A
C302        C303   1.404       .  A
C302        N307   1.436       .  S
C303        C304   1.401       .  A
C303        H308   1.084       .  S
C304        C305   1.408       .  A
C305        C306   1.401       .  A
C305        N309   1.431       .  S
C306        H310   1.084       .  S
N307        O317   1.262       .  A
N307        O318   1.263       .  A
N309        O315   1.262       .  A
N309        O316   1.262       .  A
C319        C320   1.403       .  A
C319        C324   1.401       .  A
C319        H329   1.083       .  S
C320        C321   1.416       .  A
C320        C325   1.494       .  S
C321        C322   1.407       .  A
C321        N326   1.436       .  S
C322        C323   1.405       .  A
C322        H327   1.083       .  S
C323        C324   1.418       .  A
C324        N328   1.437       .  S
C325        C330   1.414       .  A
C325        C334   1.403       .  A
N326        O341   1.262       .  A
N326        O342   1.263       .  A
N328        O339   1.263       .  A
N328        O340   1.263       .  A
C330        C331   1.403       .  A
C330        N335   1.436       .  S
C331        C332   1.408       .  A
C331        H336   1.082       .  S
C332        C333   1.417       .  A
C333        C334   1.404       .  A
C333        N337   1.432       .  S
C334        H338   1.083       .  S
N335        O345   1.263       .  A
N335        O346   1.262       .  A
N337        O343   1.262       .  A
N337        O344   1.261       .  A
C347        C348   1.402       .  A
C347        C352   1.401       .  A
C347        H357   1.084       .  S
C348        C349   1.407       .  A
C348        C353   1.479       .  S
C349        C350   1.400       .  A
C349        N354   1.430       .  S
C350        C351   1.405       .  A
C350        H355   1.084       .  S
C351        C352   1.413       .  A
C352        N356   1.435       .  S
C353        C358   1.408       .  A
C353        C362   1.402       .  A
N354        O369   1.262       .  A
N354        O370   1.262       .  A
N356        O367   1.262       .  A
N356        O368   1.262       .  A
C358        C359   1.401       .  A
C358        N363   1.435       .  S
C359        C360   1.407       .  A
C359        H364   1.084       .  S
C360        C361   1.416       .  A
C361        C362   1.402       .  A
C361        N365   1.435       .  S
C362        H366   1.084       .  S
N363        O373   1.262       .  A
N363        O374   1.263       .  A
N365        O371   1.263       .  A
N365        O372   1.262       .  A
C375        C376   1.404       .  A
C375        C380   1.404       .  A
C375        H385   1.084       .  S
C376        C377   1.412       .  A
C376        C381   1.487       .  S
C377        C378   1.403       .  A
C377        N382   1.433       .  S
C378        C379   1.404       .  A
C378        H383   1.084       .  S
C379        C380   1.413       .  A
C380        N384   1.432       .  S
C381        C386   1.411       .  A
C381        C390   1.402       .  A
N382        O397   1.262       .  A
N382        O398   1.262       .  A
N384        O395   1.262       .  A
N384        O396   1.262       .  A
C386        C387   1.403       .  A
C386        N391   1.431       .  S
C387        C388   1.405       .  A
C387        H392   1.084       .  S
C388        C389   1.416       .  A
C389        C390   1.403       .  A
C389        N393   1.434       .  S
C390        H394   1.084       .  S
N391        O401   1.262       .  A
N391        O402   1.262       .  A
N393        O399   1.262       .  A
N393        O400   1.262       .  A
C403        C404   1.403       .  A
C403        C408   1.400       .  A
C403        H413   1.084       .  S
C404        C405   1.417       .  A
C404        C409   1.486       .  S
C405        C406   1.405       .  A
C405        N410   1.438       .  S
C406        C407   1.402       .  A
C406        H411   1.084       .  S
C407        C408   1.412       .  A
C408        N412   1.435       .  S
C409        C414   1.415       .  A
C409        C418   1.404       .  A
N410        O425   1.262       .  A
N410        O426   1.263       .  A
N412        O423   1.262       .  A
N412        O424   1.262       .  A
C414        C415   1.405       .  A
C414        N419   1.438       .  S
C415        C416   1.403       .  A
C415        H420   1.084       .  S
C416        C417   1.407       .  A
C417        C418   1.399       .  A
C417        N421   1.431       .  S
C418        H422   1.084       .  S
N419        O429   1.263       .  A
N419        O430   1.263       .  A
N421        O427   1.262       .  A
N421        O428   1.262       .  A
C431        C432   1.403       .  A
C431        C436   1.402       .  A
C431        H441   1.084       .  S
C432        C433   1.413       .  A
C432        C437   1.488       .  S
C433        C434   1.405       .  A
C433        N438   1.436       .  S
C434        C435   1.405       .  A
C434        H439   1.084       .  S
C435        C436   1.414       .  A
C436        N440   1.433       .  S
C437        C442   1.412       .  A
C437        C446   1.406       .  A
N438        O453   1.262       .  A
N438        O454   1.263       .  A
N440        O451   1.262       .  A
N440        O452   1.262       .  A
C442        C443   1.401       .  A
C442        N447   1.434       .  S
C443        C444   1.404       .  A
C443        H448   1.084       .  S
C444        C445   1.411       .  A
C445        C446   1.405       .  A
C445        N449   1.433       .  S
C446        H450   1.084       .  S
N447        O457   1.262       .  A
N447        O458   1.262       .  A
N449        O455   1.262       .  A
N449        O456   1.262       .  A
C459        C460   1.402       .  A
C459        C464   1.404       .  A
C459        H469   1.084       .  S
C460        C461   1.407       .  A
C460        C465   1.481       .  S
C461        C462   1.401       .  A
C461        N466   1.431       .  S
C462        C463   1.405       .  A
C462        H467   1.084       .  S
C463        C464   1.416       .  A
C464        N468   1.435       .  S
C465        C470   1.409       .  A
C465        C474   1.404       .  A
N466        O481   1.262       .  A
N466        O482   1.262       .  A
N468        O479   1.262       .  A
N468        O480   1.262       .  A
C470        C471   1.400       .  A
C470        N475   1.430       .  S
C471        C472   1.402       .  A
C471        H476   1.084       .  S
C472        C473   1.410       .  A
C473        C474   1.402       .  A
C473        N477   1.429       .  S
C474        H478   1.084       .  S
N475        O485   1.262       .  A
N475        O486   1.262       .  A
N477        O483   1.262       .  A
N477        O484   1.262       .  A
C487        C488   1.403       .  A
C487        C492   1.401       .  A
C487        H497   1.084       .  S
C488        C489   1.413       .  A
C488        C493   1.481       .  S
C489        C490   1.399       .  A
C489        N494   1.438       .  S
C490        C491   1.404       .  A
C490        H495   1.084       .  S
C491        C492   1.411       .  A
C492        N496   1.429       .  S
C493        C498   1.416       .  A
C493        C502   1.399       .  A
N494        O509   1.263       .  A
N494        O510   1.263       .  A
N496        O507   1.261       .  A
N496        O508   1.262       .  A
C498        C499   1.405       .  A
C498        N503   1.439       .  S
C499        C500   1.404       .  A
C499        H504   1.083       .  S
C500        C501   1.417       .  A
C501        C502   1.399       .  A
C501        N505   1.437       .  S
C502        H506   1.084       .  S
N503        O513   1.263       .  A
N503        O514   1.263       .  A
N505        O511   1.263       .  A
N505        O512   1.263       .  A
C515        C516   1.403       .  A
C515        C520   1.401       .  A
C515        H525   1.084       .  S
C516        C517   1.412       .  A
C516        C521   1.485       .  S
C517        C518   1.401       .  A
C517        N522   1.435       .  S
C518        C519   1.407       .  A
C518        H523   1.083       .  S
C519        C520   1.416       .  A
C520        N524   1.430       .  S
C521        C526   1.412       .  A
C521        C530   1.406       .  A
N522        O537   1.262       .  A
N522        O538   1.263       .  A
N524        O535   1.262       .  A
N524        O536   1.262       .  A
C526        C527   1.399       .  A
C526        N531   1.434       .  S
C527        C528   1.405       .  A
C527        H532   1.084       .  S
C528        C529   1.411       .  A
C529        C530   1.403       .  A
C529        N533   1.432       .  S
C530        H534   1.084       .  S
N531        O541   1.262       .  A
N531        O542   1.262       .  A
N533        O539   1.262       .  A
N533        O540   1.262       .  A
