geometry optimzed in LAMMPS
_audit_creation_date              2020-11-30 
_audit_creation_method            'lammps2cif' 
_symmetry_space_group_name_H-M    'P1' 
_symmetry_Int_Tables_number       1 
_symmetry_cell_setting            triclinic 
loop_ 
_symmetry_equiv_pos_as_xyz 
  x,y,z 
_cell_length_a                    79.23428933538972 
_cell_length_b                    36.823993278072294 
_cell_length_c                    39.93062590003513 
_cell_angle_alpha                 89.52289268866481 
_cell_angle_beta                  90.39018496080396 
_cell_angle_gamma                 90.1209916451723 
loop_ 
_atom_site_label 
_atom_site_type_symbol 
_atom_site_fract_x 
_atom_site_fract_y 
_atom_site_fract_z 
_atom_site_charge 
N1          N  0.86239800  0.27711099  0.60841449    -0.27100
N2          N  0.84578503  0.27396887  0.60706079    -0.34960
C3          C  0.84142306  0.25621388  0.57903730     0.01240
C4          C  0.85596324  0.24825696  0.56170819     0.07260
C5          C  0.86905477  0.26157387  0.58113914    -0.05830
H6          H  0.82865449  0.24859794  0.57231570     0.07930
H7          H  0.88242978  0.25865316  0.57664736     0.09130
Cu8        Cu  0.82984992  0.29152233  0.64441288     0.44170
Cu9        Cu  0.87514444  0.29956908  0.64878095     0.41990
Cu10       Cu  0.84915201  0.33676872  0.71501718     0.43880
N11         N  0.81642366  0.30986521  0.68517182    -0.34490
N12         N  0.82337323  0.32680632  0.71089122    -0.28740
C13         C  0.81133483  0.33373381  0.73358256    -0.04840
C14         C  0.79610869  0.32078567  0.72133420     0.07370
C15         C  0.79983590  0.30547147  0.69081583     0.01170
H16         H  0.81363385  0.34591807  0.75774475     0.08820
H17         H  0.79118965  0.29147417  0.67425229     0.07900
N18         N  0.87540599  0.33777261  0.71538902    -0.35940
N19         N  0.88478820  0.32304576  0.69191085    -0.28120
C20         C  0.90110797  0.32496526  0.70118522    -0.03360
C21         C  0.90221605  0.34256669  0.73171715     0.05250
C22         C  0.88557518  0.34995607  0.73995819     0.03350
H23         H  0.91116750  0.31261175  0.68731471     0.08450
H24         H  0.88113022  0.36236084  0.76271788     0.07290
N25         N  0.86239545  0.12443283  0.40132902    -0.27100
N26         N  0.84595020  0.13033932  0.40068093    -0.34960
C27         C  0.84160024  0.14931390  0.42783736     0.01240
C28         C  0.85599312  0.15563335  0.44650624     0.07260
C29         C  0.86901468  0.13988708  0.42892141    -0.05830
H30         H  0.82896499  0.15865477  0.43312182     0.07930
H31         H  0.88229768  0.14019967  0.43536157     0.09130
Cu32       Cu  0.83027898  0.11432751  0.36211883     0.44170
Cu33       Cu  0.87474447  0.09730806  0.36329900     0.41990
Cu34       Cu  0.84879384  0.06802581  0.29219192     0.43880
N35         N  0.81643034  0.09400100  0.32260951    -0.34490
N36         N  0.82295026  0.07517319  0.29793433    -0.28740
C37         C  0.81037088  0.06447183  0.27750629    -0.04840
C38         C  0.79509873  0.07750402  0.28965737     0.07370
C39         C  0.79968495  0.09666130  0.31810969     0.01170
H40         H  0.81229526  0.04868822  0.25514100     0.08820
H41         H  0.79179061  0.11244701  0.33420941     0.07900
N42         N  0.87504217  0.06699242  0.29309348    -0.35940
N43         N  0.88425186  0.07567552  0.31945490    -0.28120
C44         C  0.90063817  0.07173857  0.31205477    -0.03360
C45         C  0.90219597  0.06090546  0.27878588     0.05250
C46         C  0.88541966  0.05819560  0.26796861     0.03350
H47         H  0.91026787  0.07702352  0.33032750     0.08450
H48         H  0.88090410  0.05135275  0.24321275     0.07290
N49         N  0.03912808  0.35941599  0.83680314    -0.27100
N50         N  0.04726829  0.37881753  0.85938124    -0.34960
C51         C  0.06358330  0.38159008  0.85068198     0.01240
C52         C  0.06611307  0.36220124  0.82142000     0.07260
C53         C  0.05016002  0.34870008  0.81348201    -0.05830
H54         H  0.07251965  0.39789212  0.86429349     0.07930
H55         H  0.04669478  0.33291784  0.79175829     0.09130
Cu56       Cu  0.03578678  0.40116284  0.90078420     0.44170
Cu57       Cu  0.01303997  0.35299660  0.83633695     0.41990
Cu58       Cu  0.99016476  0.40083878  0.90099763     0.43880
N59         N  0.02155991  0.41955203  0.94046109    -0.34490
N60         N  0.00487309  0.41973140  0.94050773    -0.28740
C61         C  0.99954414  0.43350797  0.96967750    -0.04840
C62         C  0.01355921  0.44231449  0.98887122     0.07370
C63         C  0.02729786  0.43304977  0.96960476     0.01170
H64         H  0.98643398  0.43684422  0.97636908     0.08820
H65         H  0.04049636  0.43609863  0.97612333     0.07900
N66         N  0.97868833  0.37792446  0.85922710    -0.35940
N67         N  0.98696343  0.35941467  0.83638572    -0.28120
C68         C  0.97604185  0.34900658  0.81239619    -0.03360
C69         C  0.96005765  0.36135691  0.82042050     0.05250
C70         C  0.96231892  0.38002632  0.85016953     0.03350
H71         H  0.97956667  0.33439012  0.79012157     0.08450
H72         H  0.95309313  0.39569084  0.86350925     0.07290
N73         N  0.98724261  0.03903688  0.17390035    -0.27100
N74         N  0.97857137  0.02632899  0.14839072    -0.34960
C75         C  0.96206381  0.02657447  0.15604678     0.01240
C76         C  0.96004745  0.03964982  0.18865941     0.07260
C77         C  0.97664475  0.04694581  0.19871418    -0.05830
H78         H  0.95271836  0.01736161  0.13853897     0.07930
H79         H  0.98109150  0.05635571  0.22273722     0.09130
Cu80       Cu  0.99042764  0.00615772  0.10632960     0.44170
Cu81       Cu  0.01313546  0.04355740  0.17451669     0.41990
Cu82       Cu  0.03714905  0.99933828  0.11079556     0.43880
N83         N  0.00555011  0.48416227  0.06946768    -0.34490
N84         N  0.02221805  0.48162059  0.07082196    -0.28740
C85         C  0.02765080  0.46622094  0.04238831    -0.04840
C86         C  0.01376066  0.45865678  0.02238933     0.07370
C87         C  0.99999820  0.47032546  0.04035432     0.01170
H88         H  0.04075177  0.46102721  0.03669847     0.08820
H89         H  0.98687618  0.46913550  0.03277724     0.07900
N90         N  0.04804550  0.02213723  0.15347501    -0.35940
N91         N  0.03903064  0.03990421  0.17565002    -0.28120
C92         C  0.04917678  0.05206452  0.20012622    -0.03360
C93         C  0.06543447  0.04045696  0.19394898     0.05250
C94         C  0.06428831  0.02208042  0.16372124     0.03350
H95         H  0.04483962  0.06834128  0.22063135     0.08450
H96         H  0.07448041  0.00914508  0.15046783     0.07290
N97         N  0.20382874  0.32787938  0.71400728    -0.27100
N98         N  0.21050158  0.31345327  0.68691640    -0.34960
C99         C  0.22720369  0.30948871  0.69156408     0.01240
C100        C  0.23136293  0.32242629  0.72289488     0.07260
C101        C  0.21622149  0.33337416  0.73668262    -0.05830
H102        H  0.23552898  0.29645993  0.67401270     0.07930
H103        H  0.21430954  0.34367269  0.76166408     0.09130
Cu104      Cu  0.19686151  0.29646160  0.64563657     0.44170
Cu105      Cu  0.17798473  0.33670343  0.71973842     0.41990
Cu106      Cu  0.15209443  0.29867042  0.65302831     0.43880
N107        N  0.18076118  0.27722406  0.60893320    -0.34490
N108        N  0.16416176  0.27784914  0.61173992    -0.28740
C109        C  0.15718609  0.26143865  0.58505296    -0.04840
C110        C  0.17007919  0.24979635  0.56470661     0.07370
C111        C  0.18484795  0.26039794  0.58038649     0.01170
H112        H  0.14378362  0.25739974  0.58125758     0.08820
H113        H  0.19760468  0.25509757  0.57228926     0.07900
N114        N  0.14247208  0.32080375  0.69625482    -0.35940
N115        N  0.15162915  0.33640413  0.71982154    -0.28120
C116        C  0.14119151  0.34841434  0.74373941    -0.03360
C117        C  0.12456503  0.33963875  0.73515419     0.05250
C118        C  0.12614624  0.32161646  0.70489871     0.03350
H119        H  0.14549801  0.36204999  0.76611239     0.08450
H120        H  0.11649329  0.30861441  0.69023934     0.07290
N121        N  0.16319541  0.13739610  0.39705792    -0.27100
N122        N  0.17983073  0.13966996  0.39914431    -0.34960
C123        C  0.18414272  0.15713165  0.42730805     0.01240
C124        C  0.16954849  0.16661517  0.44361810     0.07260
C125        C  0.15646161  0.15353444  0.42400775    -0.05830
H126        H  0.19695441  0.16352544  0.43476546     0.07930
H127        H  0.14308395  0.15661624  0.42838579     0.09130
Cu128      Cu  0.19615707  0.12193644  0.36276582     0.44170
Cu129      Cu  0.15072214  0.11424584  0.35644279     0.41990
Cu130      Cu  0.17836103  0.07019097  0.29604333     0.43880
N131        N  0.21014571  0.10329316  0.32308943    -0.34490
N132        N  0.20374370  0.08302504  0.29903346    -0.28740
C133        C  0.21594728  0.07529305  0.27699472    -0.04840
C134        C  0.23071083  0.09223504  0.28734074     0.07370
C135        C  0.22654590  0.10935121  0.31690863     0.01170
H136        H  0.21411110  0.05810697  0.25554320     0.08820
H137        H  0.23481649  0.12534543  0.33265715     0.07900
N138        N  0.15233006  0.07163723  0.29209221    -0.35940
N139        N  0.14232868  0.08889577  0.31297264    -0.28120
C140        C  0.12641778  0.08719932  0.30113653    -0.03360
C141        C  0.12639053  0.06820136  0.27124775     0.05250
C142        C  0.14305547  0.05820252  0.26675859     0.03350
H143        H  0.11564071  0.09929043  0.31321879     0.08450
H144        H  0.14823833  0.04203433  0.24697048     0.07290
N145        N  0.66474824  0.25826855  0.89471054    -0.27100
N146        N  0.68118926  0.26214359  0.89920699    -0.34960
C147        C  0.68590741  0.24425024  0.92712958     0.01240
C148        C  0.67190282  0.22706919  0.94051009     0.07260
C149        C  0.65863715  0.23719556  0.91955709    -0.05830
H150        H  0.69866415  0.24400910  0.93660916     0.07930
H151        H  0.64555173  0.22913408  0.92180300     0.09130
Cu152      Cu  0.69730629  0.28666546  0.86532907     0.44170
Cu153      Cu  0.65163689  0.28134527  0.85452566     0.41990
Cu154      Cu  0.67866945  0.32306328  0.79117931     0.43880
N155        N  0.71134001  0.30246471  0.82421495    -0.34490
N156        N  0.70440390  0.31584874  0.79661174    -0.28740
C157        C  0.71651359  0.32156507  0.77373452    -0.04840
C158        C  0.73175925  0.31071689  0.78751492     0.07370
C159        C  0.72806584  0.29914254  0.81968157     0.01170
H160        H  0.71433943  0.33208006  0.74869968     0.08820
H161        H  0.73682583  0.28903835  0.83841530     0.08140
N162        N  0.65259920  0.32360099  0.78936032    -0.35940
N163        N  0.64267085  0.30825877  0.81194851    -0.28120
C164        C  0.62649654  0.31279233  0.80225108    -0.03360
C165        C  0.62635186  0.33139151  0.77199229     0.05250
C166        C  0.64307007  0.33822378  0.76481873     0.03350
H167        H  0.61566676  0.30281351  0.81591450     0.08450
H168        H  0.64800771  0.35282252  0.74340218     0.07290
N169        N  0.66276377  0.10546188  0.10597084    -0.27100
N170        N  0.67856335  0.11656346  0.10883064    -0.34960
C171        C  0.68238084  0.13784479  0.08254595     0.01240
C172        C  0.66829650  0.14068019  0.06207725     0.07260
C173        C  0.65610118  0.11936941  0.07751761    -0.05830
H174        H  0.69459448  0.15027734  0.07851656     0.07930
H175        H  0.64352231  0.11343437  0.06855343     0.09130
Cu176      Cu  0.69457601  0.10175733  0.14745656     0.44170
Cu177      Cu  0.65120273  0.07314241  0.14203116     0.41990
Cu178      Cu  0.67768776  0.04748120  0.21416021     0.43880
N179        N  0.70911923  0.08140294  0.18622775    -0.34490
N180        N  0.70310094  0.06061619  0.21046161    -0.28740
C181        C  0.71577741  0.05200816  0.23162214    -0.04840
C182        C  0.73051704  0.06802022  0.21998615     0.07370
C183        C  0.72568574  0.08688586  0.19138495     0.01170
H184        H  0.71431490  0.03588919  0.25419798     0.08820
H185        H  0.73333227  0.10468665  0.17614823     0.07900
N186        N  0.65169537  0.04045790  0.21188333    -0.35940
N187        N  0.64223659  0.04868120  0.18548787    -0.28120
C188        C  0.62600979  0.04139918  0.19259484    -0.03360
C189        C  0.62511067  0.02882751  0.22533810     0.05250
C190        C  0.64168511  0.02809122  0.23654601     0.03350
H191        H  0.61577661  0.04485046  0.17492428     0.08450
H192        H  0.64611093  0.01988546  0.26115365     0.07290
N193        N  0.48797391  0.37343811  0.68111762    -0.27100
N194        N  0.47923741  0.38307015  0.65419809    -0.34960
C195        C  0.46266431  0.38022050  0.66100996     0.01240
C196        C  0.46109176  0.36821507  0.69376492     0.07260
C197        C  0.47732505  0.36436485  0.70581074    -0.05830
H198        H  0.45256965  0.38590530  0.64337285     0.07930
H199        H  0.48113043  0.35498336  0.73046783     0.09130
Cu200      Cu  0.49083744  0.39820938  0.60977192     0.44170
Cu201      Cu  0.51388583  0.37203126  0.68286332     0.41990
Cu202      Cu  0.53754728  0.39941357  0.61060971     0.43880
N203        N  0.50579504  0.40976134  0.56853239    -0.34490
N204        N  0.52251026  0.41012937  0.56873058    -0.28740
C205        C  0.52795570  0.41776925  0.53761238    -0.04840
C206        C  0.51403743  0.42240083  0.51693218     0.07370
C207        C  0.50021746  0.41717871  0.53733932     0.01170
H208        H  0.54109380  0.41959947  0.53057998     0.08820
H209        H  0.48705189  0.41839826  0.53007158     0.07900
N210        N  0.54875121  0.38490477  0.65606142    -0.35940
N211        N  0.53978830  0.37428120  0.68214433    -0.28120
C212        C  0.55018637  0.36543406  0.70752779    -0.03360
C213        C  0.56656180  0.37150519  0.69737555     0.05250
C214        C  0.56524569  0.38323752  0.66435557     0.03350
H215        H  0.54604761  0.35408003  0.73112820     0.08450
H216        H  0.57550884  0.38967177  0.64756833     0.07290
N217        N  0.54038504  0.47874491  0.31662465    -0.27100
N218        N  0.54906576  0.47023121  0.34387976    -0.34960
C219        C  0.56565478  0.47355766  0.33733014     0.01240
C220        C  0.56743187  0.48409184  0.30406182     0.07260
C221        C  0.55110223  0.48732445  0.29194738    -0.05830
H222        H  0.57548048  0.47056654  0.35599195     0.07930
H223        H  0.54727141  0.49650174  0.26723634     0.09130
Cu224      Cu  0.53730934  0.45661518  0.38854828     0.44170
Cu225      Cu  0.51445652  0.48201936  0.31503137     0.41990
Cu226      Cu  0.49058149  0.45754387  0.38787495     0.43880
N227        N  0.52225024  0.44445386  0.42949976    -0.34490
N228        N  0.50553457  0.44457622  0.42932464    -0.28740
C229        C  0.50005113  0.43638901  0.46030842    -0.04840
C230        C  0.51394949  0.43093235  0.48087620     0.07370
C231        C  0.52778919  0.43618268  0.46053339     0.01170
H232        H  0.48690859  0.43507526  0.46739940     0.08820
H233        H  0.54094828  0.43459895  0.46778414     0.07900
N234        N  0.47951810  0.47580861  0.34345407    -0.35940
N235        N  0.48855882  0.48546383  0.31717604    -0.28120
C236        C  0.47829570  0.49835990  0.29304810    -0.03360
C237        C  0.46185585  0.49592418  0.30415684     0.05250
C238        C  0.46311264  0.48202907  0.33649737     0.03350
H239        H  0.48269531  0.01028948  0.26991317     0.08450
H240        H  0.45288533  0.47744409  0.35385715     0.07290
N241        N  0.36537931  0.13398344  0.11833535    -0.27100
N242        N  0.34910044  0.14183991  0.11897782    -0.34960
C243        C  0.34493207  0.16030298  0.09099517     0.01240
C244        C  0.35928180  0.16452520  0.07199746     0.07260
C245        C  0.37201324  0.14733410  0.08980916    -0.05830
H246        H  0.33240258  0.17017410  0.08506948     0.07930
H247        H  0.38513988  0.14517825  0.08283066     0.09130
Cu248      Cu  0.33306393  0.12765191  0.15756923     0.44170
Cu249      Cu  0.37774445  0.10617578  0.15671081     0.41990
Cu250      Cu  0.35007837  0.06769914  0.22018626     0.43880
N251        N  0.31902285  0.10696784  0.19678967    -0.34490
N252        N  0.32502950  0.08320579  0.21866948    -0.28740
C253        C  0.31269877  0.07351221  0.23989061    -0.04840
C254        C  0.29823073  0.09292937  0.23163769     0.07370
C255        C  0.30278637  0.11359159  0.20386757     0.01170
H256        H  0.31431971  0.05335860  0.25930851     0.08820
H257        H  0.29486911  0.13218187  0.18975443     0.07900
N258        N  0.37609994  0.06378987  0.22163131    -0.35940
N259        N  0.38624263  0.07812310  0.19889575    -0.28120
C260        C  0.40232658  0.07145690  0.20798453    -0.03360
C261        C  0.40225776  0.05254479  0.23808335     0.05250
C262        C  0.38542359  0.04769644  0.24572826     0.03350
H263        H  0.41327147  0.07972386  0.19374331     0.08450
H264        H  0.38024555  0.03285148  0.26675665     0.07290
N265        N  0.36582600  0.26717097  0.89769383    -0.27100
N266        N  0.34922765  0.26721980  0.90088023    -0.34960
C267        C  0.34507045  0.24990937  0.92938136     0.01240
C268        C  0.35974113  0.23823894  0.94472113     0.07260
C269        C  0.37270991  0.24977867  0.92423073    -0.05830
H270        H  0.33230046  0.24568621  0.93803678     0.07930
H271        H  0.38609175  0.24560328  0.92814556     0.09130
Cu272      Cu  0.33278402  0.28819963  0.86545650     0.44170
Cu273      Cu  0.37796487  0.28969433  0.85660786     0.41990
Cu274      Cu  0.35029355  0.31158481  0.78553141     0.43880
N275        N  0.31821706  0.30068466  0.82395143    -0.34490
N276        N  0.32453318  0.30691399  0.79398378    -0.28740
C277        C  0.31172472  0.31106642  0.77205231    -0.04840
C278        C  0.29649554  0.30741226  0.78899844     0.07370
C279        C  0.30129965  0.30144463  0.82209374     0.01170
H280        H  0.31340747  0.31642559  0.74560664     0.08820
H281        H  0.29338521  0.29839654  0.84370211     0.07900
N282        N  0.37625586  0.31966687  0.78595447    -0.35940
N283        N  0.38622605  0.31226970  0.81185023    -0.28120
C284        C  0.40221153  0.32089980  0.80385580    -0.03360
C285        C  0.40223809  0.33459709  0.77156767     0.05250
C286        C  0.38565968  0.33311877  0.76080472     0.03350
H287        H  0.41304161  0.31678433  0.82008147     0.08450
H288        H  0.38081465  0.34086254  0.73638595     0.07290
C289        C  0.36111625  0.23910099  0.00620808    -0.05590
C290        C  0.36101224  0.21862011  0.97683541     0.00340
C291        C  0.36098460  0.18025301  0.97861877    -0.08240
C292        C  0.36094552  0.16336590  0.01034658    -0.05610
C293        C  0.36060377  0.18389047  0.03973857     0.00320
C294        C  0.36084798  0.22227097  0.03789724    -0.08140
C295        C  0.36080185  0.24518445  0.06930565     0.62230
H296        H  0.36103752  0.26844560  0.00404317     0.12930
H297        H  0.36072767  0.13402330  0.01248374     0.12940
C298        C  0.36062570  0.15754665  0.94708857     0.62470
F299        F  0.36211374  0.28188958  0.06197225    -0.22700
F300        F  0.37430795  0.23558885  0.08961643    -0.20030
F301        F  0.34594712  0.23961970  0.08657442    -0.19710
F302        F  0.37463640  0.16541358  0.92786499    -0.19760
F303        F  0.34619465  0.16529082  0.92872235    -0.20080
F304        F  0.36069235  0.12070272  0.95428960    -0.22750
C305        C  0.43583729  0.03279296  0.30430717    -0.05590
C306        C  0.44646380  0.00924932  0.28679108     0.00340
C307        C  0.44214508  0.49901597  0.25360920    -0.08240
C308        C  0.42755606  0.01391280  0.23878291    -0.05610
C309        C  0.41706766  0.03771120  0.25616497     0.00320
C310        C  0.42116386  0.04744494  0.28949813    -0.08140
C311        C  0.41046769  0.07406424  0.30896409     0.62230
H312        H  0.43929412  0.04007377  0.32966976     0.12930
H313        H  0.42415643  0.00698702  0.21329361     0.12940
C314        C  0.45244500  0.47172820  0.23404770     0.62470
F315        F  0.41792244  0.08323285  0.33920240    -0.22700
F316        F  0.39490725  0.05883654  0.31575814    -0.20030
F317        F  0.40825269  0.10566010  0.29048527    -0.19710
F318        F  0.45596306  0.44162598  0.25382269    -0.19760
F319        F  0.46734521  0.48746529  0.22354286    -0.20080
F320        F  0.44386485  0.45984922  0.20585711    -0.22750
C321        C  0.43920564  0.38586370  0.73398217    -0.05590
C322        C  0.44554092  0.35971058  0.71212379     0.00340
C323        C  0.43767622  0.32532195  0.70977748    -0.08240
C324        C  0.42335280  0.31829847  0.72937181    -0.05610
C325        C  0.41706923  0.34434495  0.75139207     0.00320
C326        C  0.42499366  0.37867343  0.75389260    -0.08140
C327        C  0.41839081  0.40738567  0.77743697     0.62230
H328        H  0.44562050  0.41180791  0.73557005     0.12930
H329        H  0.41706387  0.29219472  0.72805628     0.12940
C330        C  0.44465305  0.29611162  0.68716936     0.62470
F331        F  0.42762636  0.43928304  0.77535910    -0.22700
F332        F  0.41929478  0.39472978  0.81009492    -0.20030
F333        F  0.40177330  0.41524347  0.76947874    -0.19710
F334        F  0.46107762  0.28809741  0.69652505    -0.19760
F335        F  0.44444263  0.30823898  0.65431010    -0.20080
F336        F  0.43528653  0.26438492  0.68896899    -0.22750
C337        C  0.61083194  0.48528381  0.26312743    -0.05590
C338        C  0.61001342  0.01804945  0.24489926     0.00340
C339        C  0.59546593  0.04025819  0.24757605    -0.08240
C340        C  0.58215354  0.02824159  0.26795070    -0.05610
C341        C  0.58285844  0.49527058  0.28578981     0.00320
C342        C  0.59744375  0.47323210  0.28343973    -0.08140
C343        C  0.59884917  0.43684213  0.30142642     0.62230
H344        H  0.62213078  0.46896054  0.26114467     0.12930
H345        H  0.57086638  0.04460373  0.26992960     0.12940
C346        C  0.59382596  0.07670322  0.22967996     0.62470
F347        F  0.61278503  0.41742052  0.29103656    -0.22700
F348        F  0.58466418  0.41596230  0.29512620    -0.20030
F349        F  0.60049152  0.44226271  0.33546972    -0.19710
F350        F  0.59100994  0.07128321  0.19592514    -0.19760
F351        F  0.60831403  0.09714895  0.23418088    -0.20080
F352        F  0.58041887  0.09669786  0.24172748    -0.22750
C353        C  0.65713632  0.20774418  0.99210868    -0.05590
C354        C  0.67096434  0.20318427  0.97067681     0.00340
C355        C  0.68302037  0.17567442  0.97817975    -0.08240
C356        C  0.68116091  0.15526197  0.00779226    -0.05610
C357        C  0.66764285  0.16056520  0.02966067     0.00320
C358        C  0.65522790  0.18694759  0.02162499    -0.08140
C359        C  0.64032456  0.19409109  0.04434560     0.62230
H360        H  0.64790633  0.22837433  0.98579105     0.12930
H361        H  0.69056610  0.13510269  0.01448646     0.12940
C362        C  0.69788714  0.16718550  0.95568628     0.62470
F363        F  0.63127171  0.22440077  0.03417944    -0.22700
F364        F  0.64587032  0.19988969  0.07678793    -0.20030
F365        F  0.62947715  0.16469443  0.04378887    -0.19710
F366        F  0.71061852  0.19222934  0.96092836    -0.19760
F367        F  0.69300719  0.16763719  0.92236863    -0.20080
F368        F  0.70444243  0.13306996  0.96254989    -0.22750
C369        C  0.60021245  0.36705233  0.76569635    -0.05590
C370        C  0.61145728  0.34207869  0.75188169     0.00340
C371        C  0.60817332  0.32747148  0.71978414    -0.08240
C372        C  0.59349763  0.33844175  0.70251743    -0.05610
C373        C  0.58209648  0.36300222  0.71652534     0.00320
C374        C  0.58557542  0.37819969  0.74837330    -0.08140
C375        C  0.57426420  0.40688360  0.76360816     0.62230
H376        H  0.60304618  0.37784193  0.79026302     0.12930
H377        H  0.59061267  0.32735267  0.67809441     0.12940
C378        C  0.61978415  0.29952784  0.70434754     0.62470
F379        F  0.58163344  0.42253432  0.79153135    -0.22700
F380        F  0.55916136  0.39151004  0.77342393    -0.20030
F381        F  0.57114356  0.43423167  0.74043206    -0.19710
F382        F  0.62206796  0.27070216  0.72634058    -0.19760
F383        F  0.63523916  0.31515928  0.69735203    -0.20080
F384        F  0.61324616  0.28594290  0.67474252    -0.22750
C385        C  0.26156501  0.08698595  0.29358302    -0.05590
C386        C  0.24769467  0.09142306  0.27193183     0.00340
C387        C  0.25054624  0.09735832  0.23729896    -0.08240
C388        C  0.26720811  0.09619716  0.22549592    -0.05610
C389        C  0.28115459  0.09146696  0.24707236     0.00320
C390        C  0.27829773  0.08784183  0.28208678    -0.08140
C391        C  0.29245833  0.08588234  0.30790487     0.62230
H392        H  0.25916978  0.08285582  0.32001876     0.12930
H393        H  0.26942547  0.09907189  0.19889015     0.12940
C394        C  0.23639453  0.10645653  0.21275786     0.62470
F395        F  0.28670608  0.09358148  0.33974059    -0.22700
F396        F  0.30495421  0.11092039  0.30051726    -0.20030
F397        F  0.29911533  0.05125275  0.30875761    -0.19710
F398        F  0.22572938  0.13211951  0.22622335    -0.19760
F399        F  0.22738414  0.07543324  0.20518592    -0.20080
F400        F  0.24258324  0.12068567  0.18305409    -0.22750
C401        C  0.24926317  0.29693702  0.76798077    -0.05590
C402        C  0.24794626  0.31970058  0.73987683     0.00340
C403        C  0.26227916  0.33896852  0.72858583    -0.08240
C404        C  0.27758693  0.33477556  0.74616735    -0.05610
C405        C  0.27920850  0.31131518  0.77405003     0.00320
C406        C  0.26468510  0.29166887  0.78509848    -0.08140
C407        C  0.26497843  0.26485691  0.81424996     0.62230
H408        H  0.23799908  0.28280149  0.77618082     0.12930
H409        H  0.28852134  0.34998655  0.73798725     0.12940
C410        C  0.26137030  0.36430187  0.69841426     0.62470
F411        F  0.25078599  0.24283316  0.81438742    -0.22700
F412        F  0.26521062  0.28358408  0.84408485    -0.20030
F413        F  0.27886506  0.24230433  0.81231766    -0.19710
F414        F  0.24856438  0.38927269  0.70265805    -0.19760
F415        F  0.25825902  0.34450652  0.66978256    -0.20080
F416        F  0.27629008  0.38327959  0.69380489    -0.22750
C417        C  0.17113249  0.24603130  0.50326558    -0.05590
C418        C  0.16863180  0.22826161  0.53396368     0.00340
C419        C  0.16569688  0.19035213  0.53495724    -0.08240
C420        C  0.16555518  0.17111823  0.50466317    -0.05610
C421        C  0.16842308  0.18879670  0.47401359     0.00320
C422        C  0.17103714  0.22682127  0.47301003    -0.08140
C423        C  0.17367702  0.24686649  0.44008668     0.62230
H424        H  0.17339494  0.27505530  0.50328528     0.12930
H425        H  0.16361543  0.14199046  0.50470268     0.12940
C426        C  0.16324283  0.17037721  0.56797798     0.62470
F427        F  0.17471532  0.28405813  0.44447185    -0.22700
F428        F  0.16030144  0.23990151  0.41863060    -0.20030
F429        F  0.18849281  0.23546433  0.42547786    -0.19710
F430        F  0.14903268  0.18336154  0.58376731    -0.19760
F431        F  0.17717323  0.17568849  0.58844242    -0.20080
F432        F  0.16119942  0.13338779  0.56351220    -0.22750
C433        C  0.09568098  0.05663514  0.19761522    -0.05590
C434        C  0.08087033  0.04676495  0.21451628     0.00340
C435        C  0.08136182  0.04243650  0.24993245    -0.08240
C436        C  0.09659903  0.04934303  0.26697909    -0.05610
C437        C  0.11136110  0.05967043  0.25017463     0.00320
C438        C  0.11095773  0.06345352  0.21470810    -0.08140
C439        C  0.12625170  0.07528608  0.19456522     0.62230
H440        H  0.09514020  0.05933506  0.17060187     0.12930
H441        H  0.09707309  0.04678035  0.29401178     0.12940
C442        C  0.06617509  0.03028180  0.27027637     0.62470
F443        F  0.12184578  0.08540862  0.16220155    -0.22700
F444        F  0.13750590  0.04682146  0.19246870    -0.20030
F445        F  0.13403248  0.10481972  0.20932720    -0.19710
F446        F  0.05771279  0.00231964  0.25441961    -0.19760
F447        F  0.05541365  0.05927843  0.27474182    -0.20080
F448        F  0.07092715  0.01766254  0.30170700    -0.22750
C449        C  0.07916832  0.35653842  0.76560652    -0.05590
C450        C  0.08162799  0.35870644  0.80040303     0.00340
C451        C  0.09831442  0.35518028  0.81337278    -0.08240
C452        C  0.11159034  0.34847390  0.79094992    -0.05610
C453        C  0.10913069  0.34577653  0.75610017     0.00320
C454        C  0.09243511  0.35024314  0.74310398    -0.08140
C455        C  0.08799255  0.34796871  0.70606896     0.62230
H456        H  0.06647360  0.35962870  0.75589632     0.12930
H457        H  0.12420868  0.34507256  0.80087627     0.12940
C458        C  0.10254671  0.35854022  0.85040584     0.62470
F459        F  0.07203342  0.36153563  0.69923872    -0.22700
F460        F  0.08801883  0.31203688  0.69634852    -0.20030
F461        F  0.09925203  0.36803540  0.68712765    -0.19710
F462        F  0.09174470  0.33738935  0.86941017    -0.19760
F463        F  0.10139245  0.39450887  0.85968238    -0.20080
F464        F  0.11883939  0.34725244  0.85763120    -0.22750
C465        C  0.74735439  0.07244269  0.27201281    -0.05590
C466        C  0.74719579  0.06861494  0.23713365     0.00340
C467        C  0.76272197  0.06534227  0.22003819    -0.08240
C468        C  0.77782360  0.06933330  0.23828408    -0.05610
C469        C  0.77812237  0.07401212  0.27324600     0.00320
C470        C  0.76245682  0.07419132  0.29068047    -0.08140
C471        C  0.76104125  0.07603778  0.32856487     0.62230
H472        H  0.73537783  0.07468985  0.28474211     0.12930
H473        H  0.78960955  0.06920711  0.22478508     0.12940
C474        C  0.76374660  0.05677442  0.18294202     0.62470
F475        F  0.74541217  0.06397006  0.33937991    -0.22700
F476        F  0.76286455  0.11159946  0.33878096    -0.20030
F477        F  0.77304044  0.05421806  0.34390341    -0.19710
F478        F  0.76173649  0.08823201  0.16428273    -0.19760
F479        F  0.75149799  0.03178106  0.17398217    -0.20080
F480        F  0.77924567  0.04191491  0.17501595    -0.22750
C481        C  0.91526941  0.03530916  0.22750439    -0.05590
C482        C  0.91764904  0.05466910  0.25748506     0.00340
C483        C  0.93412316  0.06853406  0.26430935    -0.08240
C484        C  0.94679816  0.06418907  0.24014712    -0.05610
C485        C  0.94452446  0.04468635  0.21021365     0.00320
C486        C  0.92809760  0.03035766  0.20358407    -0.08140
C487        C  0.92346163  0.01068330  0.17151270     0.62230
H488        H  0.90302805  0.02356306  0.22270748     0.12930
H489        H  0.95883352  0.07665417  0.24493179     0.12940
C490        C  0.93903960  0.08712251  0.29684387     0.62470
F491        F  0.90686588  0.99880088  0.17121469    -0.22700
F492        F  0.93353003  0.48036142  0.16793613    -0.20030
F493        F  0.92523065  0.03418322  0.14456310    -0.19710
F494        F  0.93769403  0.06252088  0.32305071    -0.19760
F495        F  0.92892985  0.11709667  0.30191697    -0.20080
F496        F  0.95559282  0.09930402  0.29692334    -0.22750
C497        C  0.77338360  0.28475361  0.74750564    -0.05590
C498        C  0.77975011  0.31908998  0.73876917     0.00340
C499        C  0.77017433  0.35056896  0.74545052    -0.08240
C500        C  0.75457231  0.34658884  0.76167598    -0.05610
C501        C  0.74841846  0.31234800  0.77125470     0.00320
C502        C  0.75777224  0.28073722  0.76371848    -0.08140
C503        C  0.75107652  0.24297845  0.77171638     0.62230
H504        H  0.78082743  0.26104552  0.74158106     0.12930
H505        H  0.74701638  0.37027263  0.76712652     0.12940
C506        C  0.77615154  0.38797160  0.73448174     0.62470
F507        F  0.76131904  0.21608464  0.75893174    -0.22700
F508        F  0.73512883  0.23875891  0.75795538    -0.20030
F509        F  0.75025847  0.23798721  0.80598999    -0.19710
F510        F  0.77916653  0.38815755  0.70039817    -0.19760
F511        F  0.79084357  0.39688562  0.75136161    -0.20080
F512        F  0.76428906  0.41450396  0.74100212    -0.22750
C513        C  0.85242582  0.18826273  0.53581968    -0.05590
C514        C  0.85718978  0.22476510  0.53212893     0.00340
C515        C  0.86220453  0.23826495  0.50043206    -0.08240
C516        C  0.86221003  0.21439783  0.47309282    -0.05610
C517        C  0.85717610  0.17807248  0.47674746     0.00320
C518        C  0.85236009  0.16449292  0.50848248    -0.08140
C519        C  0.84723904  0.12506386  0.51326571     0.62230
H520        H  0.84860163  0.17863416  0.56033629     0.12930
H521        H  0.86572803  0.22410067  0.44841836     0.12940
C522        C  0.86684914  0.27792747  0.49536471     0.62470
F523        F  0.84392762  0.11687558  0.54648460    -0.22700
F524        F  0.86012695  0.10269733  0.50272693    -0.20030
F525        F  0.83283741  0.11784418  0.49472918    -0.19710
F526        F  0.88099607  0.28622567  0.51425401    -0.19760
F527        F  0.85359222  0.29969128  0.50518783    -0.20080
F528        F  0.87034765  0.28588082  0.46217379    -0.22750
C529        C  0.91532647  0.34263012  0.78815645    -0.05590
C530        C  0.91733818  0.34823676  0.75353939     0.00340
C531        C  0.93328613  0.36000538  0.74141470    -0.08240
C532        C  0.94665674  0.36443121  0.76442661    -0.05610
C533        C  0.94467854  0.35840214  0.79894905     0.00320
C534        C  0.92865042  0.34755345  0.81120168    -0.08140
C535        C  0.92544913  0.34043432  0.84815206     0.62230
H536        H  0.90309818  0.33396729  0.79716284     0.12930
H537        H  0.95897199  0.37259612  0.75543537     0.12940
C538        C  0.93653393  0.36826337  0.70466248     0.62470
F539        F  0.91005389  0.32350906  0.85337167    -0.22700
F540        F  0.92522948  0.37296188  0.86510162    -0.20030
F541        F  0.93786360  0.31816205  0.86147338    -0.19710
F542        F  0.92330149  0.38783490  0.69082621    -0.19760
F543        F  0.93861183  0.33619317  0.68749275    -0.20080
F544        F  0.95106063  0.38872942  0.70043541    -0.22750
N545        N  0.86239800  0.77711099  0.60841448    -0.27100
N546        N  0.84578503  0.77396887  0.60706077    -0.34960
C547        C  0.84142306  0.75621389  0.57903729     0.01240
C548        C  0.85596324  0.74825696  0.56170818     0.07260
C549        C  0.86905477  0.76157387  0.58113913    -0.05830
H550        H  0.82865449  0.74859795  0.57231568     0.07930
H551        H  0.88242978  0.75865315  0.57664735     0.09130
Cu552      Cu  0.82984992  0.79152233  0.64441287     0.44170
Cu553      Cu  0.87514444  0.79956907  0.64878094     0.41990
Cu554      Cu  0.84915201  0.83676871  0.71501717     0.43880
N555        N  0.81642366  0.80986521  0.68517181    -0.34490
N556        N  0.82337323  0.82680631  0.71089121    -0.28740
C557        C  0.81133483  0.83373380  0.73358255    -0.04840
C558        C  0.79610870  0.82078566  0.72133420     0.07370
C559        C  0.79983590  0.80547147  0.69081582     0.01170
H560        H  0.81363386  0.84591806  0.75774475     0.08820
H561        H  0.79118965  0.79147416  0.67425229     0.07900
N562        N  0.87540600  0.83777259  0.71538901    -0.35940
N563        N  0.88478820  0.82304574  0.69191084    -0.28120
C564        C  0.90110798  0.82496523  0.70118521    -0.03360
C565        C  0.90221606  0.84256666  0.73171714     0.05250
C566        C  0.88557519  0.84995605  0.73995818     0.03350
H567        H  0.91116750  0.81261171  0.68731470     0.08450
H568        H  0.88113022  0.86236082  0.76271786     0.07290
N569        N  0.86239545  0.62443282  0.40132902    -0.27100
N570        N  0.84595020  0.63033930  0.40068093    -0.34960
C571        C  0.84160025  0.64931388  0.42783736     0.01240
C572        C  0.85599312  0.65563334  0.44650624     0.07260
C573        C  0.86901468  0.63988707  0.42892140    -0.05830
H574        H  0.82896500  0.65865475  0.43312182     0.07930
H575        H  0.88229769  0.64019967  0.43536156     0.09130
Cu576      Cu  0.83027898  0.61432748  0.36211883     0.44170
Cu577      Cu  0.87474447  0.59730804  0.36329900     0.41990
Cu578      Cu  0.84879384  0.56802577  0.29219193     0.43880
N579        N  0.81643035  0.59400097  0.32260952    -0.34490
N580        N  0.82295027  0.57517314  0.29793434    -0.28740
C581        C  0.81037088  0.56447178  0.27750630    -0.04840
C582        C  0.79509873  0.57750398  0.28965738     0.07370
C583        C  0.79968495  0.59666126  0.31810970     0.01170
H584        H  0.81229526  0.54868817  0.25514101     0.08820
H585        H  0.79179061  0.61244698  0.33420942     0.07900
N586        N  0.87504218  0.56699238  0.29309348    -0.35940
N587        N  0.88425186  0.57567549  0.31945490    -0.28120
C588        C  0.90063817  0.57173855  0.31205477    -0.03360
C589        C  0.90219597  0.56090542  0.27878588     0.05250
C590        C  0.88541966  0.55819556  0.26796862     0.03350
H591        H  0.91026787  0.57702350  0.33032750     0.08450
H592        H  0.88090410  0.55135270  0.24321276     0.07290
N593        N  0.03912808  0.85941599  0.83680314    -0.27100
N594        N  0.04726829  0.87881754  0.85938125    -0.34960
C595        C  0.06358330  0.88159009  0.85068199     0.01240
C596        C  0.06611308  0.86220125  0.82142000     0.07260
C597        C  0.05016002  0.84870009  0.81348201    -0.05830
H598        H  0.07251965  0.89789213  0.86429349     0.07930
H599        H  0.04669478  0.83291784  0.79175829     0.09130
Cu600      Cu  0.03578678  0.90116284  0.90078420     0.44170
Cu601      Cu  0.01303997  0.85299659  0.83633695     0.41990
Cu602      Cu  0.99016476  0.90083876  0.90099763     0.43880
N603        N  0.02155991  0.91955201  0.94046111    -0.34490
N604        N  0.00487309  0.91973137  0.94050774    -0.28740
C605        C  0.99954414  0.93350792  0.96967752    -0.04840
C606        C  0.01355921  0.94231445  0.98887124     0.07370
C607        C  0.02729786  0.93304974  0.96960477     0.01170
H608        H  0.98643397  0.93684417  0.97636909     0.08820
H609        H  0.04049635  0.93609861  0.97612334     0.07900
N610        N  0.97868833  0.87792444  0.85922711    -0.35940
N611        N  0.98696344  0.85941465  0.83638572    -0.28120
C612        C  0.97604186  0.84900656  0.81239619    -0.03360
C613        C  0.96005766  0.86135689  0.82042050     0.05250
C614        C  0.96231892  0.88002629  0.85016953     0.03350
H615        H  0.97956668  0.83439011  0.79012158     0.08450
H616        H  0.95309313  0.89569081  0.86350925     0.07290
N617        N  0.98724262  0.53903683  0.17390037    -0.27100
N618        N  0.97857137  0.52632898  0.14839072    -0.34960
C619        C  0.96206381  0.52657448  0.15604678     0.01240
C620        C  0.96004745  0.53964979  0.18865941     0.07260
C621        C  0.97664476  0.54694574  0.19871421    -0.05830
H622        H  0.95271836  0.51736166  0.13853894     0.07930
H623        H  0.98109150  0.55635560  0.22273725     0.09130
Cu624      Cu  0.99042765  0.50615775  0.10632958     0.44170
Cu625      Cu  0.01313547  0.54355733  0.17451672     0.41990
Cu626      Cu  0.03714906  0.49933828  0.11079556     0.43880
N627        N  0.00555010  0.98416223  0.06946770    -0.34490
N628        N  0.02221804  0.98162056  0.07082197    -0.28740
C629        C  0.02765079  0.96622091  0.04238833    -0.04840
C630        C  0.01376066  0.95865674  0.02238935     0.07370
C631        C  0.99999819  0.97032541  0.04035434     0.01170
H632        H  0.04075176  0.96102719  0.03669848     0.08820
H633        H  0.98687617  0.96913544  0.03277726     0.07900
N634        N  0.04804551  0.52213720  0.15347502    -0.35940
N635        N  0.03903064  0.53990416  0.17565005    -0.28120
C636        C  0.04917678  0.55206447  0.20012625    -0.03360
C637        C  0.06543448  0.54045692  0.19394900     0.05250
C638        C  0.06428831  0.52208040  0.16372125     0.03350
H639        H  0.04483962  0.56834121  0.22063138     0.08450
H640        H  0.07448042  0.50914508  0.15046783     0.07290
N641        N  0.20382874  0.82787942  0.71400728    -0.27100
N642        N  0.21050158  0.81345330  0.68691640    -0.34960
C643        C  0.22720369  0.80948874  0.69156407     0.01240
C644        C  0.23136293  0.82242632  0.72289488     0.07260
C645        C  0.21622149  0.83337419  0.73668262    -0.05830
H646        H  0.23552898  0.79645996  0.67401270     0.07930
H647        H  0.21430954  0.84367272  0.76166408     0.09130
Cu648      Cu  0.19686151  0.79646164  0.64563656     0.44170
Cu649      Cu  0.17798473  0.83670347  0.71973841     0.41990
Cu650      Cu  0.15209443  0.79867044  0.65302831     0.43880
N651        N  0.18076118  0.77722409  0.60893320    -0.34490
N652        N  0.16416176  0.77784916  0.61173992    -0.28740
C653        C  0.15718609  0.76143867  0.58505296    -0.04840
C654        C  0.17007920  0.74979638  0.56470661     0.07370
C655        C  0.18484795  0.76039798  0.58038649     0.01170
H656        H  0.14378362  0.75739975  0.58125758     0.08820
H657        H  0.19760468  0.75509762  0.57228926     0.07900
N658        N  0.14247208  0.82080376  0.69625483    -0.35940
N659        N  0.15162915  0.83640416  0.71982153    -0.28120
C660        C  0.14119151  0.84841437  0.74373941    -0.03360
C661        C  0.12456503  0.83963877  0.73515419     0.05250
C662        C  0.12614624  0.82161647  0.70489872     0.03350
H663        H  0.14549801  0.86205002  0.76611239     0.08450
H664        H  0.11649329  0.80861441  0.69023935     0.07290
N665        N  0.16319541  0.63739613  0.39705791    -0.27100
N666        N  0.17983074  0.63967000  0.39914430    -0.34960
C667        C  0.18414273  0.65713170  0.42730804     0.01240
C668        C  0.16954850  0.66661521  0.44361809     0.07260
C669        C  0.15646161  0.65353447  0.42400775    -0.05830
H670        H  0.19695442  0.66352549  0.43476544     0.07930
H671        H  0.14308395  0.65661626  0.42838578     0.09130
Cu672      Cu  0.19615708  0.62193648  0.36276581     0.44170
Cu673      Cu  0.15072215  0.61424585  0.35644279     0.41990
Cu674      Cu  0.17836104  0.57019097  0.29604334     0.43880
N675        N  0.21014572  0.60329318  0.32308943    -0.34490
N676        N  0.20374371  0.58302505  0.29903346    -0.28740
C677        C  0.21594729  0.57529305  0.27699473    -0.04840
C678        C  0.23071084  0.59223505  0.28734074     0.07370
C679        C  0.22654591  0.60935123  0.31690863     0.01170
H680        H  0.21411111  0.55810696  0.25554322     0.08820
H681        H  0.23481650  0.62534546  0.33265714     0.07900
N682        N  0.15233007  0.57163722  0.29209223    -0.35940
N683        N  0.14232869  0.58889576  0.31297265    -0.28120
C684        C  0.12641779  0.58719931  0.30113654    -0.03360
C685        C  0.12639054  0.56820134  0.27124776     0.05250
C686        C  0.14305548  0.55820250  0.26675861     0.03350
H687        H  0.11564072  0.59929042  0.31321880     0.08450
H688        H  0.14823834  0.54203430  0.24697051     0.07290
N689        N  0.66474825  0.75826857  0.89471053    -0.27100
N690        N  0.68118926  0.76214361  0.89920699    -0.34960
C691        C  0.68590741  0.74425026  0.92712958     0.01240
C692        C  0.67190282  0.72706921  0.94051009     0.07260
C693        C  0.65863715  0.73719558  0.91955709    -0.05830
H694        H  0.69866415  0.74400913  0.93660916     0.07930
H695        H  0.64555174  0.72913409  0.92180299     0.09130
Cu696      Cu  0.69730629  0.78666547  0.86532906     0.44170
Cu697      Cu  0.65163690  0.78134528  0.85452565     0.41990
Cu698      Cu  0.67866945  0.82306328  0.79117930     0.43880
N699        N  0.71134001  0.80246471  0.82421495    -0.34490
N700        N  0.70440390  0.81584874  0.79661173    -0.28740
C701        C  0.71651360  0.82156506  0.77373451    -0.04840
C702        C  0.73175925  0.81071689  0.78751491     0.07370
C703        C  0.72806584  0.79914255  0.81968157     0.01170
H704        H  0.71433944  0.83208005  0.74869966     0.08820
H705        H  0.73682583  0.78903837  0.83841530     0.08140
N706        N  0.65259920  0.82360099  0.78936031    -0.35940
N707        N  0.64267085  0.80825877  0.81194850    -0.28120
C708        C  0.62649654  0.81279233  0.80225108    -0.03360
C709        C  0.62635186  0.83139150  0.77199228     0.05250
C710        C  0.64307007  0.83822377  0.76481872     0.03350
H711        H  0.61566676  0.80281351  0.81591449     0.08450
H712        H  0.64800771  0.85282250  0.74340216     0.07290
N713        N  0.66276378  0.60546190  0.10597084    -0.27100
N714        N  0.67856335  0.61656348  0.10883064    -0.34960
C715        C  0.68238084  0.63784481  0.08254595     0.01240
C716        C  0.66829650  0.64068020  0.06207725     0.07260
C717        C  0.65610119  0.61936942  0.07751761    -0.05830
H718        H  0.69459448  0.65027736  0.07851656     0.07930
H719        H  0.64352232  0.61343437  0.06855343     0.09130
Cu720      Cu  0.69457602  0.60175735  0.14745656     0.44170
Cu721      Cu  0.65120274  0.57314242  0.14203116     0.41990
Cu722      Cu  0.67768776  0.54748122  0.21416021     0.43880
N723        N  0.70911923  0.58140294  0.18622774    -0.34490
N724        N  0.70310094  0.56061619  0.21046160    -0.28740
C725        C  0.71577741  0.55200816  0.23162213    -0.04840
C726        C  0.73051704  0.56802022  0.21998615     0.07370
C727        C  0.72568574  0.58688586  0.19138495     0.01170
H728        H  0.71431490  0.53588919  0.25419797     0.08820
H729        H  0.73333227  0.60468665  0.17614823     0.07900
N730        N  0.65169538  0.54045792  0.21188332    -0.35940
N731        N  0.64223659  0.54868121  0.18548787    -0.28120
C732        C  0.62600979  0.54139919  0.19259483    -0.03360
C733        C  0.62511067  0.52882752  0.22533810     0.05250
C734        C  0.64168512  0.52809124  0.23654601     0.03350
H735        H  0.61577661  0.54485047  0.17492427     0.08450
H736        H  0.64611093  0.51988548  0.26115365     0.07290
N737        N  0.48797391  0.87343811  0.68111763    -0.27100
N738        N  0.47923741  0.88307015  0.65419809    -0.34960
C739        C  0.46266430  0.88022051  0.66100997     0.01240
C740        C  0.46109175  0.86821507  0.69376492     0.07260
C741        C  0.47732505  0.86436485  0.70581074    -0.05830
H742        H  0.45256965  0.88590531  0.64337286     0.07930
H743        H  0.48113042  0.85498335  0.73046783     0.09130
Cu744      Cu  0.49083743  0.89820939  0.60977193     0.44170
Cu745      Cu  0.51388582  0.87203125  0.68286332     0.41990
Cu746      Cu  0.53754727  0.89941356  0.61060971     0.43880
N747        N  0.50579503  0.90976135  0.56853240    -0.34490
N748        N  0.52251026  0.91012938  0.56873058    -0.28740
C749        C  0.52795570  0.91776926  0.53761238    -0.04840
C750        C  0.51403743  0.92240086  0.51693218     0.07370
C751        C  0.50021745  0.91717874  0.53733933     0.01170
H752        H  0.54109379  0.91959947  0.53057998     0.08820
H753        H  0.48705189  0.91839829  0.53007159     0.07900
N754        N  0.54875120  0.88490475  0.65606142    -0.35940
N755        N  0.53978830  0.87428118  0.68214433    -0.28120
C756        C  0.55018637  0.86543404  0.70752779    -0.03360
C757        C  0.56656180  0.87150516  0.69737554     0.05250
C758        C  0.56524568  0.88323750  0.66435556     0.03350
H759        H  0.54604761  0.85408001  0.73112820     0.08450
H760        H  0.57550884  0.88967175  0.64756832     0.07290
N761        N  0.54038504  0.97874490  0.31662464    -0.27100
N762        N  0.54906575  0.97023120  0.34387975    -0.34960
C763        C  0.56565477  0.97355766  0.33733014     0.01240
C764        C  0.56743186  0.98409183  0.30406181     0.07260
C765        C  0.55110222  0.98732443  0.29194737    -0.05830
H766        H  0.57548047  0.97056655  0.35599195     0.07930
H767        H  0.54727140  0.99650172  0.26723633     0.09130
Cu768      Cu  0.53730933  0.95661519  0.38854828     0.44170
Cu769      Cu  0.51445651  0.98201934  0.31503136     0.41990
Cu770      Cu  0.49058148  0.95754389  0.38787495     0.43880
N771        N  0.52225024  0.94445389  0.42949976    -0.34490
N772        N  0.50553456  0.94457625  0.42932465    -0.28740
C773        C  0.50005113  0.93638904  0.46030843    -0.04840
C774        C  0.51394948  0.93093237  0.48087621     0.07370
C775        C  0.52778918  0.93618270  0.46053339     0.01170
H776        H  0.48690858  0.93507529  0.46739941     0.08820
H777        H  0.54094828  0.93459897  0.46778415     0.07900
N778        N  0.47951809  0.97580860  0.34345407    -0.35940
N779        N  0.48855881  0.98546382  0.31717603    -0.28120
C780        C  0.47829569  0.99835988  0.29304809    -0.03360
C781        C  0.46185585  0.99592417  0.30415683     0.05250
C782        C  0.46311263  0.98202908  0.33649736     0.03350
H783        H  0.48269532  0.51028952  0.26991318     0.08450
H784        H  0.45288532  0.97744411  0.35385716     0.07290
N785        N  0.36537932  0.63398343  0.11833535    -0.27100
N786        N  0.34910045  0.64183989  0.11897781    -0.34960
C787        C  0.34493207  0.66030297  0.09099516     0.01240
C788        C  0.35928181  0.66452519  0.07199747     0.07260
C789        C  0.37201324  0.64733410  0.08980916    -0.05830
H790        H  0.33240259  0.67017408  0.08506948     0.07930
H791        H  0.38513989  0.64517825  0.08283066     0.09130
Cu792      Cu  0.33306393  0.62765188  0.15756922     0.44170
Cu793      Cu  0.37774445  0.60617576  0.15671080     0.41990
Cu794      Cu  0.35007838  0.56769910  0.22018625     0.43880
N795        N  0.31902286  0.60696780  0.19678966    -0.34490
N796        N  0.32502950  0.58320575  0.21866946    -0.28740
C797        C  0.31269877  0.57351218  0.23989060    -0.04840
C798        C  0.29823073  0.59292934  0.23163768     0.07370
C799        C  0.30278638  0.61359156  0.20386756     0.01170
H800        H  0.31431971  0.55335857  0.25930850     0.08820
H801        H  0.29486912  0.63218184  0.18975442     0.07900
N802        N  0.37609995  0.56378984  0.22163130    -0.35940
N803        N  0.38624263  0.57812307  0.19889574    -0.28120
C804        C  0.40232659  0.57145688  0.20798453    -0.03360
C805        C  0.40225777  0.55254476  0.23808335     0.05250
C806        C  0.38542359  0.54769641  0.24572825     0.03350
H807        H  0.41327147  0.57972385  0.19374332     0.08450
H808        H  0.38024556  0.53285144  0.26675664     0.07290
N809        N  0.36582600  0.76717099  0.89769384    -0.27100
N810        N  0.34922765  0.76721979  0.90088023    -0.34960
C811        C  0.34507045  0.74990935  0.92938136     0.01240
C812        C  0.35974113  0.73823894  0.94472114     0.07260
C813        C  0.37270991  0.74977869  0.92423074    -0.05830
H814        H  0.33230046  0.74568617  0.93803677     0.07930
H815        H  0.38609175  0.74560333  0.92814559     0.09130
Cu816      Cu  0.33278402  0.78819961  0.86545650     0.44170
Cu817      Cu  0.37796486  0.78969436  0.85660788     0.41990
Cu818      Cu  0.35029355  0.81158480  0.78553141     0.43880
N819        N  0.31821705  0.80068463  0.82395142    -0.34490
N820        N  0.32453317  0.80691396  0.79398378    -0.28740
C821        C  0.31172472  0.81106640  0.77205230    -0.04840
C822        C  0.29649554  0.80741224  0.78899844     0.07370
C823        C  0.30129965  0.80144460  0.82209373     0.01170
H824        H  0.31340747  0.81642558  0.74560664     0.08820
H825        H  0.29338521  0.79839651  0.84370210     0.07900
N826        N  0.37625586  0.81966687  0.78595448    -0.35940
N827        N  0.38622605  0.81226973  0.81185024    -0.28120
C828        C  0.40221152  0.82089984  0.80385581    -0.03360
C829        C  0.40223809  0.83459711  0.77156768     0.05250
C830        C  0.38565968  0.83311877  0.76080473     0.03350
H831        H  0.41304161  0.81678438  0.82008149     0.08450
H832        H  0.38081465  0.84086252  0.73638595     0.07290
C833        C  0.36111626  0.73910098  0.00620809    -0.05590
C834        C  0.36101224  0.71862012  0.97683541     0.00340
C835        C  0.36098459  0.68025302  0.97861877    -0.08240
C836        C  0.36094552  0.66336590  0.01034658    -0.05610
C837        C  0.36060377  0.68389047  0.03973857     0.00320
C838        C  0.36084800  0.72227096  0.03789724    -0.08140
C839        C  0.36080188  0.74518444  0.06930566     0.62230
H840        H  0.36103754  0.76844560  0.00404318     0.12930
H841        H  0.36072766  0.63402330  0.01248374     0.12940
C842        C  0.36062568  0.65754665  0.94708857     0.62470
F843        F  0.36211378  0.78188957  0.06197226    -0.22700
F844        F  0.37430798  0.73558883  0.08961643    -0.20030
F845        F  0.34594715  0.73961969  0.08657444    -0.19710
F846        F  0.37463638  0.66541358  0.92786498    -0.19760
F847        F  0.34619463  0.66529083  0.92872237    -0.20080
F848        F  0.36069233  0.62070272  0.95428960    -0.22750
C849        C  0.43583730  0.53279295  0.30430717    -0.05590
C850        C  0.44646381  0.50924932  0.28679109     0.00340
C851        C  0.44214507  0.99901596  0.25360920    -0.08240
C852        C  0.42755607  0.51391280  0.23878291    -0.05610
C853        C  0.41706767  0.53771119  0.25616497     0.00320
C854        C  0.42116386  0.54744492  0.28949813    -0.08140
C855        C  0.41046768  0.57406421  0.30896409     0.62230
H856        H  0.43929412  0.54007376  0.32966977     0.12930
H857        H  0.42415644  0.50698702  0.21329361     0.12940
C858        C  0.45244498  0.97172818  0.23404770     0.62470
F859        F  0.41792243  0.58323283  0.33920240    -0.22700
F860        F  0.39490725  0.55883650  0.31575813    -0.20030
F861        F  0.40825268  0.60566008  0.29048527    -0.19710
F862        F  0.45596304  0.94162597  0.25382269    -0.19760
F863        F  0.46734519  0.98746527  0.22354285    -0.20080
F864        F  0.44386483  0.95984920  0.20585711    -0.22750
C865        C  0.43920564  0.88586370  0.73398218    -0.05590
C866        C  0.44554092  0.85971059  0.71212379     0.00340
C867        C  0.43767621  0.82532197  0.70977748    -0.08240
C868        C  0.42335279  0.81829849  0.72937181    -0.05610
C869        C  0.41706923  0.84434496  0.75139208     0.00320
C870        C  0.42499366  0.87867344  0.75389261    -0.08140
C871        C  0.41839082  0.90738569  0.77743698     0.62230
H872        H  0.44562050  0.91180791  0.73557006     0.12930
H873        H  0.41706386  0.79219475  0.72805627     0.12940
C874        C  0.44465304  0.79611163  0.68716935     0.62470
F875        F  0.42762636  0.93928305  0.77535911    -0.22700
F876        F  0.41929478  0.89472979  0.81009493    -0.20030
F877        F  0.40177331  0.91524349  0.76947875    -0.19710
F878        F  0.46107760  0.78809742  0.69652503    -0.19760
F879        F  0.44444261  0.80823900  0.65431009    -0.20080
F880        F  0.43528651  0.76438495  0.68896897    -0.22750
C881        C  0.61083193  0.98528379  0.26312742    -0.05590
C882        C  0.61001342  0.51804946  0.24489926     0.00340
C883        C  0.59546593  0.54025819  0.24757604    -0.08240
C884        C  0.58215354  0.52824160  0.26795070    -0.05610
C885        C  0.58285843  0.99527057  0.28578981     0.00320
C886        C  0.59744374  0.97323208  0.28343972    -0.08140
C887        C  0.59884916  0.93684210  0.30142639     0.62230
H888        H  0.62213077  0.96896052  0.26114466     0.12930
H889        H  0.57086638  0.54460374  0.26992959     0.12940
C890        C  0.59382596  0.57670322  0.22967994     0.62470
F891        F  0.61278501  0.91742049  0.29103654    -0.22700
F892        F  0.58466416  0.91596228  0.29512616    -0.20030
F893        F  0.60049150  0.94226267  0.33546969    -0.19710
F894        F  0.59100993  0.57128319  0.19592512    -0.19760
F895        F  0.60831402  0.59714896  0.23418085    -0.20080
F896        F  0.58041886  0.59669785  0.24172745    -0.22750
C897        C  0.65713632  0.70774418  0.99210867    -0.05590
C898        C  0.67096435  0.70318428  0.97067681     0.00340
C899        C  0.68302038  0.67567445  0.97817975    -0.08240
C900        C  0.68116092  0.65526199  0.00779226    -0.05610
C901        C  0.66764285  0.66056522  0.02966067     0.00320
C902        C  0.65522790  0.68694759  0.02162498    -0.08140
C903        C  0.64032455  0.69409107  0.04434557     0.62230
H904        H  0.64790633  0.72837432  0.98579104     0.12930
H905        H  0.69056611  0.63510273  0.01448647     0.12940
C906        C  0.69788715  0.66718553  0.95568629     0.62470
F907        F  0.63127170  0.72440075  0.03417941    -0.22700
F908        F  0.64587031  0.69988968  0.07678792    -0.20030
F909        F  0.62947714  0.66469440  0.04378884    -0.19710
F910        F  0.71061852  0.69222937  0.96092837    -0.19760
F911        F  0.69300720  0.66763722  0.92236863    -0.20080
F912        F  0.70444245  0.63306999  0.96254990    -0.22750
C913        C  0.60021245  0.86705233  0.76569633    -0.05590
C914        C  0.61145728  0.84207868  0.75188168     0.00340
C915        C  0.60817331  0.82747145  0.71978414    -0.08240
C916        C  0.59349763  0.83844171  0.70251743    -0.05610
C917        C  0.58209648  0.86300220  0.71652533     0.00320
C918        C  0.58557542  0.87819968  0.74837328    -0.08140
C919        C  0.57426421  0.90688360  0.76360814     0.62230
H920        H  0.60304619  0.87784194  0.79026299     0.12930
H921        H  0.59061266  0.82735262  0.67809441     0.12940
C922        C  0.61978415  0.79952780  0.70434755     0.62470
F923        F  0.58163345  0.92253433  0.79153132    -0.22700
F924        F  0.55916136  0.89151005  0.77342391    -0.20030
F925        F  0.57114357  0.93423167  0.74043202    -0.19710
F926        F  0.62206795  0.77070212  0.72634060    -0.19760
F927        F  0.63523915  0.81515923  0.69735203    -0.20080
F928        F  0.61324615  0.78594284  0.67474254    -0.22750
C929        C  0.26156502  0.58698594  0.29358301    -0.05590
C930        C  0.24769467  0.59142305  0.27193183     0.00340
C931        C  0.25054624  0.59735831  0.23729896    -0.08240
C932        C  0.26720812  0.59619714  0.22549592    -0.05610
C933        C  0.28115460  0.59146694  0.24707235     0.00320
C934        C  0.27829774  0.58784182  0.28208677    -0.08140
C935        C  0.29245834  0.58588233  0.30790486     0.62230
H936        H  0.25916979  0.58285583  0.32001876     0.12930
H937        H  0.26942548  0.59907186  0.19889014     0.12940
C938        C  0.23639453  0.60645652  0.21275785     0.62470
F939        F  0.28670609  0.59358148  0.33974058    -0.22700
F940        F  0.30495422  0.61092037  0.30051724    -0.20030
F941        F  0.29911533  0.55125274  0.30875760    -0.19710
F942        F  0.22572939  0.63211951  0.22622335    -0.19760
F943        F  0.22738414  0.57543324  0.20518593    -0.20080
F944        F  0.24258324  0.62068565  0.18305409    -0.22750
C945        C  0.24926317  0.79693703  0.76798076    -0.05590
C946        C  0.24794626  0.81970060  0.73987683     0.00340
C947        C  0.26227916  0.83896854  0.72858583    -0.08240
C948        C  0.27758693  0.83477556  0.74616735    -0.05610
C949        C  0.27920849  0.81131517  0.77405003     0.00320
C950        C  0.26468510  0.79166888  0.78509847    -0.08140
C951        C  0.26497842  0.76485691  0.81424995     0.62230
H952        H  0.23799907  0.78280151  0.77618082     0.12930
H953        H  0.28852135  0.84998654  0.73798725     0.12940
C954        C  0.26137031  0.86430189  0.69841427     0.62470
F955        F  0.25078598  0.74283317  0.81438741    -0.22700
F956        F  0.26521061  0.78358408  0.84408484    -0.20030
F957        F  0.27886505  0.74230432  0.81231765    -0.19710
F958        F  0.24856439  0.88927272  0.70265807    -0.19760
F959        F  0.25825902  0.84450654  0.66978257    -0.20080
F960        F  0.27629009  0.88327959  0.69380489    -0.22750
C961        C  0.17113248  0.74603134  0.50326557    -0.05590
C962        C  0.16863180  0.72826164  0.53396368     0.00340
C963        C  0.16569689  0.69035216  0.53495724    -0.08240
C964        C  0.16555520  0.67111825  0.50466316    -0.05610
C965        C  0.16842309  0.68879674  0.47401358     0.00320
C966        C  0.17103713  0.72682131  0.47301002    -0.08140
C967        C  0.17367701  0.74686653  0.44008667     0.62230
H968        H  0.17339492  0.77505534  0.50328527     0.12930
H969        H  0.16361545  0.64199049  0.50470267     0.12940
C970        C  0.16324286  0.67037724  0.56797797     0.62470
F971        F  0.17471530  0.78405817  0.44447184    -0.22700
F972        F  0.16030142  0.73990154  0.41863060    -0.20030
F973        F  0.18849279  0.73546439  0.42547784    -0.19710
F974        F  0.14903271  0.68336154  0.58376731    -0.19760
F975        F  0.17717326  0.67568852  0.58844240    -0.20080
F976        F  0.16119946  0.63338781  0.56351220    -0.22750
C977        C  0.09568099  0.55663509  0.19761524    -0.05590
C978        C  0.08087034  0.54676491  0.21451630     0.00340
C979        C  0.08136183  0.54243648  0.24993247    -0.08240
C980        C  0.09659904  0.54934302  0.26697911    -0.05610
C981        C  0.11136111  0.55967040  0.25017465     0.00320
C982        C  0.11095774  0.56345347  0.21470812    -0.08140
C983        C  0.12625172  0.57528601  0.19456523     0.62230
H984        H  0.09514021  0.55933500  0.17060189     0.12930
H985        H  0.09707309  0.54678036  0.29401180     0.12940
C986        C  0.06617509  0.53028181  0.27027640     0.62470
F987        F  0.12184579  0.58540853  0.16220156    -0.22700
F988        F  0.13750591  0.54682138  0.19246873    -0.20030
F989        F  0.13403250  0.60481965  0.20932720    -0.19710
F990        F  0.05771279  0.50231965  0.25441965    -0.19760
F991        F  0.05541366  0.55927845  0.27474185    -0.20080
F992        F  0.07092716  0.51766256  0.30170704    -0.22750
C993        C  0.07916832  0.85653844  0.76560652    -0.05590
C994        C  0.08162799  0.85870645  0.80040303     0.00340
C995        C  0.09831442  0.85518029  0.81337279    -0.08240
C996        C  0.11159034  0.84847391  0.79094993    -0.05610
C997        C  0.10913070  0.84577655  0.75610017     0.00320
C998        C  0.09243511  0.85024316  0.74310398    -0.08140
C999        C  0.08799256  0.84796874  0.70606896     0.62230
H1000       H  0.06647360  0.85962873  0.75589632     0.12930
H1001       H  0.12420868  0.84507257  0.80087627     0.12940
C1002       C  0.10254671  0.85854021  0.85040585     0.62470
F1003       F  0.07203343  0.86153567  0.69923872    -0.22700
F1004       F  0.08801883  0.81203691  0.69634852    -0.20030
F1005       F  0.09925204  0.86803542  0.68712765    -0.19710
F1006       F  0.09174469  0.83738934  0.86941017    -0.19760
F1007       F  0.10139245  0.89450885  0.85968240    -0.20080
F1008       F  0.11883939  0.84725242  0.85763121    -0.22750
C1009       C  0.74735440  0.57244269  0.27201281    -0.05590
C1010       C  0.74719580  0.56861493  0.23713365     0.00340
C1011       C  0.76272198  0.56534224  0.22003819    -0.08240
C1012       C  0.77782360  0.56933326  0.23828408    -0.05610
C1013       C  0.77812237  0.57401209  0.27324600     0.00320
C1014       C  0.76245682  0.57419131  0.29068047    -0.08140
C1015       C  0.76104125  0.57603778  0.32856487     0.62230
H1016       H  0.73537783  0.57468986  0.28474210     0.12930
H1017       H  0.78960956  0.56920706  0.22478509     0.12940
C1018       C  0.76374660  0.55677438  0.18294202     0.62470
F1019       F  0.74541216  0.56397007  0.33937991    -0.22700
F1020       F  0.76286455  0.61159945  0.33878096    -0.20030
F1021       F  0.77304043  0.55421805  0.34390342    -0.19710
F1022       F  0.76173650  0.58823197  0.16428273    -0.19760
F1023       F  0.75149799  0.53178102  0.17398218    -0.20080
F1024       F  0.77924567  0.54191486  0.17501596    -0.22750
C1025       C  0.91526941  0.53530914  0.22750438    -0.05590
C1026       C  0.91764904  0.55466906  0.25748506     0.00340
C1027       C  0.93412317  0.56853400  0.26430936    -0.08240
C1028       C  0.94679816  0.56418902  0.24014713    -0.05610
C1029       C  0.94452446  0.54468632  0.21021365     0.00320
C1030       C  0.92809760  0.53035765  0.20358407    -0.08140
C1031       C  0.92346163  0.51068330  0.17151269     0.62230
H1032       H  0.90302805  0.52356305  0.22270746     0.12930
H1033       H  0.95883353  0.57665412  0.24493180     0.12940
C1034       C  0.93903961  0.58712243  0.29684389     0.62470
F1035       F  0.90686588  0.49880087  0.17121467    -0.22700
F1036       F  0.93353003  0.98036141  0.16793616    -0.20030
F1037       F  0.92523064  0.53418325  0.14456310    -0.19710
F1038       F  0.93769403  0.56252078  0.32305072    -0.19760
F1039       F  0.92892987  0.61709660  0.30191700    -0.20080
F1040       F  0.95559284  0.59930390  0.29692338    -0.22750
C1041       C  0.77338360  0.78475361  0.74750564    -0.05590
C1042       C  0.77975012  0.81908997  0.73876918     0.00340
C1043       C  0.77017434  0.85056896  0.74545052    -0.08240
C1044       C  0.75457232  0.84658884  0.76167598    -0.05610
C1045       C  0.74841846  0.81234799  0.77125470     0.00320
C1046       C  0.75777224  0.78073722  0.76371848    -0.08140
C1047       C  0.75107652  0.74297844  0.77171637     0.62230
H1048       H  0.78082743  0.76104551  0.74158105     0.12930
H1049       H  0.74701639  0.87027263  0.76712653     0.12940
C1050       C  0.77615155  0.88797160  0.73448175     0.62470
F1051       F  0.76131904  0.71608464  0.75893174    -0.22700
F1052       F  0.73512883  0.73875891  0.75795537    -0.20030
F1053       F  0.75025847  0.73798720  0.80598998    -0.19710
F1054       F  0.77916654  0.88815756  0.70039818    -0.19760
F1055       F  0.79084358  0.89688560  0.75136163    -0.20080
F1056       F  0.76428907  0.91450396  0.74100214    -0.22750
C1057       C  0.85242582  0.68826273  0.53581967    -0.05590
C1058       C  0.85718978  0.72476510  0.53212892     0.00340
C1059       C  0.86220453  0.73826495  0.50043204    -0.08240
C1060       C  0.86221003  0.71439783  0.47309281    -0.05610
C1061       C  0.85717610  0.67807247  0.47674745     0.00320
C1062       C  0.85236010  0.66449292  0.50848248    -0.08140
C1063       C  0.84723905  0.62506385  0.51326571     0.62230
H1064       H  0.84860164  0.67863415  0.56033628     0.12930
H1065       H  0.86572802  0.72410067  0.44841835     0.12940
C1066       C  0.86684913  0.77792747  0.49536469     0.62470
F1067       F  0.84392763  0.61687557  0.54648460    -0.22700
F1068       F  0.86012696  0.60269733  0.50272693    -0.20030
F1069       F  0.83283743  0.61784416  0.49472919    -0.19710
F1070       F  0.88099606  0.78622567  0.51425399    -0.19760
F1071       F  0.85359221  0.79969128  0.50518781    -0.20080
F1072       F  0.87034765  0.78588081  0.46217377    -0.22750
C1073       C  0.91532647  0.84263012  0.78815645    -0.05590
C1074       C  0.91733819  0.84823673  0.75353938     0.00340
C1075       C  0.93328614  0.86000532  0.74141469    -0.08240
C1076       C  0.94665675  0.86443116  0.76442660    -0.05610
C1077       C  0.94467854  0.85840212  0.79894905     0.00320
C1078       C  0.92865042  0.84755345  0.81120168    -0.08140
C1079       C  0.92544912  0.84043436  0.84815206     0.62230
H1080       H  0.90309818  0.83396731  0.79716284     0.12930
H1081       H  0.95897200  0.87259605  0.75543536     0.12940
C1082       C  0.93653394  0.86826327  0.70466246     0.62470
F1083       F  0.91005388  0.82350911  0.85337168    -0.22700
F1084       F  0.92522947  0.87296194  0.86510159    -0.20030
F1085       F  0.93786359  0.81816209  0.86147341    -0.19710
F1086       F  0.92330151  0.88783481  0.69082618    -0.19760
F1087       F  0.93861184  0.83619306  0.68749277    -0.20080
F1088       F  0.95106065  0.88872930  0.70043539    -0.22750
loop_ 
_geom_bond_atom_site_label_1 
_geom_bond_atom_site_label_2 
_geom_bond_distance 
_geom_bond_site_symmetry_2 
_ccdc_geom_bond_type 
N1            N2   1.322       .  A
N1            C5   1.346       .  A
N1           Cu9   2.073       .  S
N2            C3   1.344       .  A
N2           Cu8   2.069       .  S
C3            C4   1.381       .  A
C3            H6   1.082       .  S
C4            C5   1.383       .  A
C4          C514   1.474       .  S
C5            H7   1.082       .  S
Cu8          N11   2.069       .  S
Cu9          N19   2.074       .  S
Cu10         N12   2.080       .  S
Cu10         N18   2.080       .  S
N11          N12   1.322       .  A
N11          C15   1.344       .  A
N12          C13   1.346       .  A
C13          C14   1.384       .  A
C13          H16   1.082       .  S
C14          C15   1.381       .  A
C14         C498   1.476       .  S
C15          H17   1.082       .  S
N18          N19   1.321       .  A
N18          C22   1.345       .  A
N19          C20   1.345       .  A
C20          C21   1.388       .  A
C20          H23   1.077       .  S
C21          C22   1.389       .  A
C21         C530   1.492       .  S
C22          H24   1.082       .  S
N25          N26   1.322       .  A
N25          C29   1.347       .  A
N25         Cu33   2.076       .  S
N26          C27   1.342       .  A
N26         Cu32   2.061       .  S
C27          C28   1.379       .  A
C27          H30   1.082       .  S
C28          C29   1.383       .  A
C28         C517   1.471       .  S
C29          H31   1.082       .  S
Cu32         N35   2.061       .  S
Cu33         N43   2.076       .  S
Cu34         N36   2.080       .  S
Cu34         N42   2.080       .  S
N35          N36   1.318       .  A
N35          C39   1.341       .  A
N36          C37   1.344       .  A
C37          C38   1.394       .  A
C37          H40   1.081       .  S
C38          C39   1.388       .  A
C38         C469   1.498       .  S
C39          H41   1.075       .  S
N42          N43   1.318       .  A
N42          C46   1.344       .  A
N43          C44   1.342       .  A
C44          C45   1.397       .  A
C44          H47   1.071       .  S
C45          C46   1.398       .  A
C45         C482   1.515       .  S
C46          H48   1.081       .  S
N49          N50   1.319       .  A
N49          C53   1.344       .  A
N49         Cu57   2.080       .  S
N50          C51   1.344       .  A
N50         Cu56   2.070       .  S
C51          C52   1.390       .  A
C51          H54   1.075       .  S
C52          C53   1.393       .  A
C52         C450   1.500       .  S
C53          H55   1.082       .  S
Cu56         N59   2.070       .  S
Cu57         N67   2.080   1_455  S
Cu58         N60   2.079   1_655  S
Cu58         N66   2.079       .  S
N59          N60   1.322       .  A
N59          C63   1.345       .  A
N60          C61   1.345   1_455  A
C61          C62   1.384   1_655  A
C61          H64   1.082       .  S
C62          C63   1.382       .  A
C62          C86   1.472   1_556  S
C63          H65   1.082       .  S
N66          N67   1.322       .  A
N66          C70   1.346       .  A
N67          C68   1.344       .  A
C68          C69   1.387       .  A
C68          H71   1.082       .  S
C69          C70   1.388       .  A
C69         C533   1.489       .  S
C70          H72   1.078       .  S
N73          N74   1.314       .  A
N73          C77   1.337       .  A
N73         Cu81   2.058   1_655  S
N74          C75   1.345       .  A
N74         Cu80   2.074       .  S
C75          C76   1.402       .  A
C75          H78   1.071       .  S
C76          C77   1.399       .  A
C76         C485   1.519       .  S
C77          H79   1.079       .  S
Cu80        N627   2.075   1_645  S
Cu81         N91   2.057       .  S
Cu82         N90   2.087   1_565  S
Cu82        N628   2.088       .  S
N83          N84   1.325       .  A
N83          C87   1.344   1_455  A
N83        Cu624   2.075   1_455  S
N84          C85   1.347       .  A
N84        Cu626   2.088       .  S
C85          C86   1.385       .  A
C85          H88   1.082       .  S
C86          C87   1.381   1_455  A
C87          H89   1.082       .  S
N90          N91   1.320       .  A
N90          C94   1.348       .  A
N91          C92   1.341       .  A
C92          C93   1.383       .  A
C92          H95   1.077       .  S
C93          C94   1.391       .  A
C93         C434   1.487       .  S
C94          H96   1.082       .  S
N97          N98   1.323       .  A
N97         C101   1.347       .  A
N97        Cu105   2.088       .  S
N98          C99   1.343       .  A
N98        Cu104   2.066       .  S
C99         C100   1.380       .  A
C99         H102   1.082       .  S
C100        C101   1.386       .  A
C100        C402   1.478       .  S
C101        H103   1.082       .  S
Cu104       N107   2.065       .  S
Cu105       N115   2.088       .  S
Cu106       N108   2.065       .  S
Cu106       N114   2.066       .  S
N107        N108   1.321       .  A
N107        C111   1.344       .  A
N108        C109   1.344       .  A
C109        C110   1.381       .  A
C109        H112   1.082       .  S
C110        C111   1.381       .  A
C110        C418   1.471       .  S
C111        H113   1.082       .  S
N114        N115   1.319       .  A
N114        C118   1.342       .  A
N115        C116   1.346       .  A
C116        C117   1.397       .  A
C116        H119   1.081       .  S
C117        C118   1.390       .  A
C117        C453   1.505       .  S
C118        H120   1.074       .  S
N121        N122   1.323       .  A
N121        C125   1.347       .  A
N121       Cu129   2.081       .  S
N122        C123   1.342       .  A
N122       Cu128   2.063       .  S
C123        C124   1.378       .  A
C123        H126   1.082       .  S
C124        C125   1.383       .  A
C124        C421   1.472       .  S
C125        H127   1.082       .  S
Cu128       N131   2.063       .  S
Cu129       N139   2.082       .  S
Cu130       N132   2.068       .  S
Cu130       N138   2.068       .  S
N131        N132   1.319       .  A
N131        C135   1.342       .  A
N132        C133   1.344       .  A
C133        C134   1.387       .  A
C133        H136   1.078       .  S
C134        C135   1.385       .  A
C134        C386   1.484       .  S
C135        H137   1.082       .  S
N138        N139   1.322       .  A
N138        C142   1.343       .  A
N139        C140   1.345       .  A
C140        C141   1.388       .  A
C140        H143   1.082       .  S
C141        C142   1.385       .  A
C141        C437   1.488       .  S
C142        H144   1.077       .  S
N145        N146   1.321       .  A
N145        C149   1.347       .  A
N145       Cu153   2.082       .  S
N146        C147   1.342       .  A
N146       Cu152   2.067       .  S
C147        C148   1.384       .  A
C147        H150   1.077       .  S
C148        C149   1.389       .  A
C148        C354   1.488       .  S
C149        H151   1.082       .  S
Cu152       N155   2.068       .  S
Cu153       N163   2.082       .  S
Cu154       N156   2.067       .  S
Cu154       N162   2.067       .  S
N155        N156   1.320       .  A
N155        C159   1.345       .  A
N156        C157   1.344       .  A
C157        C158   1.382       .  A
C157        H160   1.082       .  S
C158        C159   1.383       .  A
C158        C501   1.476       .  S
C159        H161   1.081       .  S
N162        N163   1.323       .  A
N162        C166   1.343       .  A
N163        C164   1.347       .  A
C164        C165   1.384       .  A
C164        H167   1.082       .  S
C165        C166   1.379       .  A
C165        C370   1.475       .  S
C166        H168   1.081       .  S
N169        N170   1.321       .  A
N169        C173   1.347       .  A
N169       Cu177   2.077       .  S
N170        C171   1.340       .  A
N170       Cu176   2.061       .  S
C171        C172   1.382       .  A
C171        H174   1.082       .  S
C172        C173   1.388       .  A
C172        C357   1.483       .  S
C173        H175   1.079       .  S
Cu176       N179   2.061       .  S
Cu177       N187   2.077       .  S
Cu178       N180   2.076       .  S
Cu178       N186   2.077       .  S
N179        N180   1.320       .  A
N179        C183   1.342       .  A
N180        C181   1.345       .  A
C181        C182   1.388       .  A
C181        H184   1.082       .  S
C182        C183   1.384       .  A
C182        C466   1.484       .  S
C183        H185   1.079       .  S
N186        N187   1.323       .  A
N186        C190   1.345       .  A
N187        C188   1.345       .  A
C188        C189   1.386       .  A
C188        H191   1.078       .  S
C189        C190   1.385       .  A
C189        C338   1.485       .  S
C190        H192   1.082       .  S
N193        N194   1.321       .  A
N193        C197   1.342       .  A
N193       Cu201   2.055       .  S
N194        C195   1.347       .  A
N194       Cu200   2.075       .  S
C195        C196   1.383       .  A
C195        H198   1.082       .  S
C196        C197   1.377       .  A
C196        C322   1.470       .  S
C197        H199   1.082       .  S
Cu200       N203   2.076       .  S
Cu201       N211   2.054       .  S
Cu202       N204   2.082       .  S
Cu202       N210   2.081       .  S
N203        N204   1.324       .  A
N203        C207   1.345       .  A
N204        C205   1.345       .  A
C205        C206   1.383       .  A
C205        H208   1.082       .  S
C206        C207   1.382       .  A
C206        C230   1.471       .  S
C207        H209   1.082       .  S
N210        N211   1.321       .  A
N210        C214   1.347       .  A
N211        C212   1.340       .  A
C212        C213   1.379       .  A
C212        H215   1.081       .  S
C213        C214   1.387       .  A
C213        C373   1.477       .  S
C214        H216   1.082       .  S
N217        N218   1.319       .  A
N217        C221   1.341       .  A
N217       Cu225   2.059       .  S
N218        C219   1.347       .  A
N218       Cu224   2.075       .  S
C219        C220   1.389       .  A
C219        H222   1.079       .  S
C220        C221   1.383       .  A
C220        C341   1.484       .  S
C221        H223   1.082       .  S
Cu224       N227   2.076       .  S
Cu225       N235   2.059       .  S
Cu226       N228   2.082       .  S
Cu226       N234   2.080       .  S
N227        N228   1.324       .  A
N227        C231   1.345       .  A
N228        C229   1.346       .  A
C229        C230   1.383       .  A
C229        H232   1.082       .  S
C230        C231   1.381       .  A
C231        H233   1.082       .  S
N234        N235   1.320       .  A
N234        C238   1.347       .  A
N235        C236   1.341       .  A
C236        C237   1.381       .  A
C236        H783   1.079       .  S
C237        C238   1.388       .  A
C237        C850   1.481       .  S
C238        H240   1.082       .  S
H239        C780   1.079   1_545  S
N241        N242   1.323       .  A
N241        C245   1.347       .  A
N241       Cu249   2.077       .  S
N242        C243   1.343       .  A
N242       Cu248   2.067       .  S
C243        C244   1.379       .  A
C243        H246   1.082       .  S
C244        C245   1.382       .  A
C244        C293   1.471       .  S
C245        H247   1.082       .  S
Cu248       N251   2.067       .  S
Cu249       N259   2.078       .  S
Cu250       N252   2.067       .  S
Cu250       N258   2.068       .  S
N251        N252   1.319       .  A
N251        C255   1.342       .  A
N252        C253   1.343       .  A
C253        C254   1.389       .  A
C253        H256   1.076       .  S
C254        C255   1.389       .  A
C254        C389   1.491       .  S
C255        H257   1.082       .  S
N258        N259   1.322       .  A
N258        C262   1.344       .  A
N259        C260   1.345       .  A
C260        C261   1.384       .  A
C260        H263   1.082       .  S
C261        C262   1.381       .  A
C261        C309   1.477       .  S
C262        H264   1.081       .  S
N265        N266   1.322       .  A
N265        C269   1.346       .  A
N265       Cu273   2.074       .  S
N266        C267   1.342       .  A
N266       Cu272   2.063       .  S
C267        C268   1.378       .  A
C267        H270   1.082       .  S
C268        C269   1.382       .  A
C268        C290   1.470       .  S
C269        H271   1.082       .  S
Cu272       N275   2.062       .  S
Cu273       N283   2.074       .  S
Cu274       N276   2.078       .  S
Cu274       N282   2.078       .  S
N275        N276   1.318       .  A
N275        C279   1.342       .  A
N276        C277   1.344       .  A
C277        C278   1.393       .  A
C277        H280   1.082       .  S
C278        C279   1.389       .  A
C278        C405   1.497       .  S
C279        H281   1.075       .  S
N282        N283   1.324       .  A
N282        C286   1.345       .  A
N283        C284   1.345       .  A
C284        C285   1.381       .  A
C284        H287   1.082       .  S
C285        C286   1.380       .  A
C285        C325   1.471       .  S
C286        H288   1.082       .  S
C289        C290   1.400   1_554  A
C289        C294   1.405       .  A
C289        H296   1.083       .  S
C290        C291   1.414       .  A
C291        C292   1.407   1_556  A
C291        C298   1.517       .  S
C292        C293   1.402       .  A
C292        H297   1.083       .  S
C293        C294   1.415       .  A
C294        C295   1.517       .  S
C295        F299   1.384       .  S
C295        F300   1.383       .  S
C295        F301   1.382       .  S
C298        F302   1.383       .  S
C298        F303   1.383       .  S
C298        F304   1.385       .  S
C305        C306   1.404       .  A
C305        C310   1.407       .  A
C305        H312   1.083       .  S
C306        C851   1.420   1_545  A
C306        C781   1.481   1_545  S
C307        C850   1.420       .  A
C307        C852   1.406       .  A
C307        C314   1.520       .  S
C308        C309   1.401       .  A
C308        C851   1.406   1_545  A
C308        H313   1.083       .  S
C309        C310   1.417       .  A
C310        C311   1.519       .  S
C311        F315   1.385       .  S
C311        F316   1.381       .  S
C311        F317   1.383       .  S
C314        F318   1.383       .  S
C314        F319   1.380       .  S
C314        F320   1.385       .  S
C321        C322   1.401       .  A
C321        C326   1.406       .  A
C321        H328   1.083       .  S
C322        C323   1.414       .  A
C323        C324   1.405       .  A
C323        C330   1.518       .  S
C324        C325   1.401       .  A
C324        H329   1.083       .  S
C325        C326   1.414       .  A
C326        C327   1.517       .  S
C327        F331   1.385       .  S
C327        F332   1.383       .  S
C327        F333   1.383       .  S
C330        F334   1.383       .  S
C330        F335   1.382       .  S
C330        F336   1.384       .  S
C337        C342   1.408       .  A
C337        C882   1.405       .  A
C337        H344   1.083       .  S
C338        C339   1.420       .  A
C338        C881   1.405   1_545  A
C339        C340   1.405       .  A
C339        C346   1.521       .  S
C340        C885   1.404   1_545  A
C340        H345   1.083       .  S
C341        C342   1.418       .  A
C341        C884   1.404       .  A
C342        C343   1.519       .  S
C343        F347   1.385       .  S
C343        F348   1.383       .  S
C343        F349   1.381       .  S
C346        F350   1.381       .  S
C346        F351   1.383       .  S
C346        F352   1.385       .  S
C353        C354   1.406       .  A
C353        C358   1.409   1_556  A
C353        H360   1.083       .  S
C354        C355   1.423       .  A
C355        C356   1.404   1_556  A
C355        C362   1.521       .  S
C356        C357   1.402       .  A
C356        H361   1.084       .  S
C357        C358   1.417       .  A
C358        C359   1.519       .  S
C359        F363   1.385       .  S
C359        F364   1.383       .  S
C359        F365   1.381       .  S
C362        F366   1.381       .  S
C362        F367   1.383       .  S
C362        F368   1.385       .  S
C369        C370   1.401       .  A
C369        C374   1.407       .  A
C369        H376   1.083       .  S
C370        C371   1.416       .  A
C371        C372   1.406       .  A
C371        C378   1.519       .  S
C372        C373   1.402       .  A
C372        H377   1.083       .  S
C373        C374   1.419       .  A
C374        C375   1.520       .  S
C375        F379   1.384       .  S
C375        F380   1.381       .  S
C375        F381   1.384       .  S
C378        F382   1.383       .  S
C378        F383   1.381       .  S
C378        F384   1.384       .  S
C385        C386   1.403       .  A
C385        C390   1.406       .  A
C385        H392   1.083       .  S
C386        C387   1.418       .  A
C387        C388   1.406       .  A
C387        C394   1.520       .  S
C388        C389   1.407       .  A
C388        H393   1.082       .  S
C389        C390   1.423       .  A
C390        C391   1.520       .  S
C391        F395   1.385       .  S
C391        F396   1.383       .  S
C391        F397   1.381       .  S
C394        F398   1.384       .  S
C394        F399   1.380       .  S
C394        F400   1.385       .  S
C401        C402   1.399       .  A
C401        C406   1.409       .  A
C401        H408   1.083       .  S
C402        C403   1.412       .  A
C403        C404   1.405       .  A
C403        C410   1.519       .  S
C404        C405   1.409       .  A
C404        H409   1.082       .  S
C405        C406   1.428       .  A
C406        C407   1.520       .  S
C407        F411   1.385       .  S
C407        F412   1.381       .  S
C407        F413   1.383       .  S
C410        F414   1.383       .  S
C410        F415   1.381       .  S
C410        F416   1.385       .  S
C417        C418   1.400       .  A
C417        C422   1.405       .  A
C417        H424   1.083       .  S
C418        C419   1.415       .  A
C419        C420   1.407       .  A
C419        C426   1.518       .  S
C420        C421   1.401       .  A
C420        H425   1.083       .  S
C421        C422   1.415       .  A
C422        C423   1.518       .  S
C423        F427   1.384       .  S
C423        F428   1.383       .  S
C423        F429   1.382       .  S
C426        F430   1.382       .  S
C426        F431   1.383       .  S
C426        F432   1.384       .  S
C433        C434   1.403       .  A
C433        C438   1.409       .  A
C433        H440   1.083       .  S
C434        C435   1.422       .  A
C435        C436   1.406       .  A
C435        C442   1.521       .  S
C436        C437   1.403       .  A
C436        H441   1.083       .  S
C437        C438   1.422       .  A
C438        C439   1.520       .  S
C439        F443   1.385       .  S
C439        F444   1.381       .  S
C439        F445   1.383       .  S
C442        F446   1.383       .  S
C442        F447   1.381       .  S
C442        F448   1.385       .  S
C449        C450   1.405       .  A
C449        C454   1.408       .  A
C449        H456   1.081       .  S
C450        C451   1.422       .  A
C451        C452   1.410       .  A
C451        C458   1.520       .  S
C452        C453   1.408       .  A
C452        H457   1.080       .  S
C453        C454   1.427       .  A
C454        C455   1.521       .  S
C455        F459   1.385       .  S
C455        F460   1.382       .  S
C455        F461   1.382       .  S
C458        F462   1.382       .  S
C458        F463   1.382       .  S
C458        F464   1.385       .  S
C465        C466   1.401       .  A
C465        C470   1.407       .  A
C465        H472   1.083       .  S
C466        C467   1.417       .  A
C467        C468   1.405       .  A
C467        C474   1.520       .  S
C468        C469   1.408       .  A
C468        H473   1.081       .  S
C469        C470   1.427       .  A
C470        C471   1.520       .  S
C471        F475   1.385       .  S
C471        F476   1.382       .  S
C471        F477   1.383       .  S
C474        F478   1.381       .  S
C474        F479   1.383       .  S
C474        F480   1.385       .  S
C481        C482   1.410       .  A
C481        C486   1.413       .  A
C481        H488   1.078       .  S
C482        C483   1.426       .  A
C483        C484   1.408       .  A
C483        C490   1.521       .  S
C484        C485   1.410       .  A
C484        H489   1.074       .  S
C485        C486   1.427       .  A
C486        C487   1.519       .  S
C487        F491   1.385   1_545  S
C487        F493   1.383       .  S
C487       F1036   1.383   1_545  S
C490        F494   1.383       .  S
C490        F495   1.382       .  S
C490        F496   1.385       .  S
F492       C1031   1.383       .  S
C497        C498   1.403       .  A
C497        C502   1.407       .  A
C497        H504   1.083       .  S
C498        C499   1.415       .  A
C499        C500   1.406       .  A
C499        C506   1.518       .  S
C500        C501   1.402       .  A
C500        H505   1.083       .  S
C501        C502   1.417       .  A
C502        C503   1.519       .  S
C503        F507   1.385       .  S
C503        F508   1.383       .  S
C503        F509   1.381       .  S
C506        F510   1.383       .  S
C506        F511   1.382       .  S
C506        F512   1.385       .  S
C513        C514   1.402       .  A
C513        C518   1.405       .  A
C513        H520   1.083       .  S
C514        C515   1.415       .  A
C515        C516   1.407       .  A
C515        C522   1.518       .  S
C516        C517   1.402       .  A
C516        H521   1.083       .  S
C517        C518   1.413       .  A
C518        C519   1.518       .  S
C519        F523   1.385       .  S
C519        F524   1.383       .  S
C519        F525   1.382       .  S
C522        F526   1.382       .  S
C522        F527   1.383       .  S
C522        F528   1.385       .  S
C529        C530   1.406       .  A
C529        C534   1.408       .  A
C529        H536   1.082       .  S
C530        C531   1.422       .  A
C531        C532   1.408       .  A
C531        C538   1.520       .  S
C532        C533   1.404       .  A
C532        H537   1.083       .  S
C533        C534   1.419       .  A
C534        C535   1.519       .  S
C535        F539   1.385       .  S
C535        F540   1.381       .  S
C535        F541   1.383       .  S
C538        F542   1.383       .  S
C538        F543   1.381       .  S
C538        F544   1.385       .  S
N545        N546   1.322       .  A
N545        C549   1.346       .  A
N545       Cu553   2.073       .  S
N546        C547   1.344       .  A
N546       Cu552   2.069       .  S
C547        C548   1.381       .  A
C547        H550   1.082       .  S
C548        C549   1.383       .  A
C548       C1058   1.474       .  S
C549        H551   1.082       .  S
Cu552       N555   2.069       .  S
Cu553       N563   2.074       .  S
Cu554       N556   2.080       .  S
Cu554       N562   2.080       .  S
N555        N556   1.322       .  A
N555        C559   1.344       .  A
N556        C557   1.346       .  A
C557        C558   1.384       .  A
C557        H560   1.082       .  S
C558        C559   1.381       .  A
C558       C1042   1.476       .  S
C559        H561   1.082       .  S
N562        N563   1.321       .  A
N562        C566   1.345       .  A
N563        C564   1.345       .  A
C564        C565   1.388       .  A
C564        H567   1.077       .  S
C565        C566   1.389       .  A
C565       C1074   1.492       .  S
C566        H568   1.082       .  S
N569        N570   1.322       .  A
N569        C573   1.347       .  A
N569       Cu577   2.076       .  S
N570        C571   1.342       .  A
N570       Cu576   2.061       .  S
C571        C572   1.379       .  A
C571        H574   1.082       .  S
C572        C573   1.383       .  A
C572       C1061   1.471       .  S
C573        H575   1.082       .  S
Cu576       N579   2.061       .  S
Cu577       N587   2.076       .  S
Cu578       N580   2.080       .  S
Cu578       N586   2.080       .  S
N579        N580   1.318       .  A
N579        C583   1.341       .  A
N580        C581   1.344       .  A
C581        C582   1.394       .  A
C581        H584   1.081       .  S
C582        C583   1.388       .  A
C582       C1013   1.498       .  S
C583        H585   1.075       .  S
N586        N587   1.318       .  A
N586        C590   1.344       .  A
N587        C588   1.342       .  A
C588        C589   1.397       .  A
C588        H591   1.071       .  S
C589        C590   1.398       .  A
C589       C1026   1.515       .  S
C590        H592   1.081       .  S
N593        N594   1.319       .  A
N593        C597   1.344       .  A
N593       Cu601   2.080       .  S
N594        C595   1.344       .  A
N594       Cu600   2.070       .  S
C595        C596   1.390       .  A
C595        H598   1.075       .  S
C596        C597   1.393       .  A
C596        C994   1.500       .  S
C597        H599   1.082       .  S
Cu600       N603   2.070       .  S
Cu601       N611   2.080   1_455  S
Cu602       N604   2.079   1_655  S
Cu602       N610   2.079       .  S
N603        N604   1.322       .  A
N603        C607   1.345       .  A
N604        C605   1.345   1_455  A
C605        C606   1.384   1_655  A
C605        H608   1.082       .  S
C606        C607   1.382       .  A
C606        C630   1.472   1_556  S
C607        H609   1.082       .  S
N610        N611   1.322       .  A
N610        C614   1.346       .  A
N611        C612   1.344       .  A
C612        C613   1.387       .  A
C612        H615   1.082       .  S
C613        C614   1.388       .  A
C613       C1077   1.489       .  S
C614        H616   1.078       .  S
N617        N618   1.314       .  A
N617        C621   1.337       .  A
N617       Cu625   2.058   1_655  S
N618        C619   1.345       .  A
N618       Cu624   2.074       .  S
C619        C620   1.402       .  A
C619        H622   1.071       .  S
C620        C621   1.399       .  A
C620       C1029   1.519       .  S
C621        H623   1.079       .  S
Cu625       N635   2.057       .  S
Cu626       N634   2.087       .  S
N627        N628   1.325       .  A
N627        C631   1.344   1_455  A
N628        C629   1.347       .  A
C629        C630   1.385       .  A
C629        H632   1.082       .  S
C630        C631   1.381   1_455  A
C631        H633   1.082       .  S
N634        N635   1.320       .  A
N634        C638   1.348       .  A
N635        C636   1.341       .  A
C636        C637   1.383       .  A
C636        H639   1.077       .  S
C637        C638   1.391       .  A
C637        C978   1.487       .  S
C638        H640   1.082       .  S
N641        N642   1.323       .  A
N641        C645   1.347       .  A
N641       Cu649   2.088       .  S
N642        C643   1.343       .  A
N642       Cu648   2.066       .  S
C643        C644   1.380       .  A
C643        H646   1.082       .  S
C644        C645   1.386       .  A
C644        C946   1.478       .  S
C645        H647   1.082       .  S
Cu648       N651   2.065       .  S
Cu649       N659   2.088       .  S
Cu650       N652   2.065       .  S
Cu650       N658   2.066       .  S
N651        N652   1.321       .  A
N651        C655   1.344       .  A
N652        C653   1.344       .  A
C653        C654   1.381       .  A
C653        H656   1.082       .  S
C654        C655   1.381       .  A
C654        C962   1.471       .  S
C655        H657   1.082       .  S
N658        N659   1.319       .  A
N658        C662   1.342       .  A
N659        C660   1.346       .  A
C660        C661   1.397       .  A
C660        H663   1.081       .  S
C661        C662   1.390       .  A
C661        C997   1.505       .  S
C662        H664   1.074       .  S
N665        N666   1.323       .  A
N665        C669   1.347       .  A
N665       Cu673   2.081       .  S
N666        C667   1.342       .  A
N666       Cu672   2.063       .  S
C667        C668   1.378       .  A
C667        H670   1.082       .  S
C668        C669   1.383       .  A
C668        C965   1.472       .  S
C669        H671   1.082       .  S
Cu672       N675   2.063       .  S
Cu673       N683   2.082       .  S
Cu674       N676   2.068       .  S
Cu674       N682   2.068       .  S
N675        N676   1.319       .  A
N675        C679   1.342       .  A
N676        C677   1.344       .  A
C677        C678   1.387       .  A
C677        H680   1.078       .  S
C678        C679   1.385       .  A
C678        C930   1.484       .  S
C679        H681   1.082       .  S
N682        N683   1.322       .  A
N682        C686   1.343       .  A
N683        C684   1.345       .  A
C684        C685   1.388       .  A
C684        H687   1.082       .  S
C685        C686   1.385       .  A
C685        C981   1.488       .  S
C686        H688   1.077       .  S
N689        N690   1.321       .  A
N689        C693   1.347       .  A
N689       Cu697   2.082       .  S
N690        C691   1.342       .  A
N690       Cu696   2.067       .  S
C691        C692   1.384       .  A
C691        H694   1.077       .  S
C692        C693   1.389       .  A
C692        C898   1.488       .  S
C693        H695   1.082       .  S
Cu696       N699   2.068       .  S
Cu697       N707   2.082       .  S
Cu698       N700   2.067       .  S
Cu698       N706   2.067       .  S
N699        N700   1.320       .  A
N699        C703   1.345       .  A
N700        C701   1.344       .  A
C701        C702   1.382       .  A
C701        H704   1.082       .  S
C702        C703   1.383       .  A
C702       C1045   1.476       .  S
C703        H705   1.081       .  S
N706        N707   1.323       .  A
N706        C710   1.343       .  A
N707        C708   1.347       .  A
C708        C709   1.384       .  A
C708        H711   1.082       .  S
C709        C710   1.379       .  A
C709        C914   1.475       .  S
C710        H712   1.081       .  S
N713        N714   1.321       .  A
N713        C717   1.347       .  A
N713       Cu721   2.077       .  S
N714        C715   1.340       .  A
N714       Cu720   2.061       .  S
C715        C716   1.382       .  A
C715        H718   1.082       .  S
C716        C717   1.388       .  A
C716        C901   1.483       .  S
C717        H719   1.079       .  S
Cu720       N723   2.061       .  S
Cu721       N731   2.077       .  S
Cu722       N724   2.076       .  S
Cu722       N730   2.077       .  S
N723        N724   1.320       .  A
N723        C727   1.342       .  A
N724        C725   1.345       .  A
C725        C726   1.388       .  A
C725        H728   1.082       .  S
C726        C727   1.384       .  A
C726       C1010   1.484       .  S
C727        H729   1.079       .  S
N730        N731   1.323       .  A
N730        C734   1.345       .  A
N731        C732   1.345       .  A
C732        C733   1.386       .  A
C732        H735   1.078       .  S
C733        C734   1.385       .  A
C733        C882   1.485       .  S
C734        H736   1.082       .  S
N737        N738   1.321       .  A
N737        C741   1.342       .  A
N737       Cu745   2.055       .  S
N738        C739   1.347       .  A
N738       Cu744   2.075       .  S
C739        C740   1.383       .  A
C739        H742   1.082       .  S
C740        C741   1.377       .  A
C740        C866   1.470       .  S
C741        H743   1.082       .  S
Cu744       N747   2.076       .  S
Cu745       N755   2.054       .  S
Cu746       N748   2.082       .  S
Cu746       N754   2.081       .  S
N747        N748   1.324       .  A
N747        C751   1.345       .  A
N748        C749   1.345       .  A
C749        C750   1.383       .  A
C749        H752   1.082       .  S
C750        C751   1.382       .  A
C750        C774   1.471       .  S
C751        H753   1.082       .  S
N754        N755   1.321       .  A
N754        C758   1.347       .  A
N755        C756   1.340       .  A
C756        C757   1.379       .  A
C756        H759   1.081       .  S
C757        C758   1.387       .  A
C757        C917   1.477       .  S
C758        H760   1.082       .  S
N761        N762   1.319       .  A
N761        C765   1.341       .  A
N761       Cu769   2.059       .  S
N762        C763   1.347       .  A
N762       Cu768   2.075       .  S
C763        C764   1.389       .  A
C763        H766   1.079       .  S
C764        C765   1.383       .  A
C764        C885   1.484       .  S
C765        H767   1.082       .  S
Cu768       N771   2.076       .  S
Cu769       N779   2.059       .  S
Cu770       N772   2.082       .  S
Cu770       N778   2.080       .  S
N771        N772   1.324       .  A
N771        C775   1.345       .  A
N772        C773   1.346       .  A
C773        C774   1.383       .  A
C773        H776   1.082       .  S
C774        C775   1.381       .  A
C775        H777   1.082       .  S
N778        N779   1.320       .  A
N778        C782   1.347       .  A
N779        C780   1.341       .  A
C780        C781   1.381       .  A
C781        C782   1.388       .  A
C782        H784   1.082       .  S
N785        N786   1.323       .  A
N785        C789   1.347       .  A
N785       Cu793   2.077       .  S
N786        C787   1.343       .  A
N786       Cu792   2.067       .  S
C787        C788   1.379       .  A
C787        H790   1.082       .  S
C788        C789   1.382       .  A
C788        C837   1.471       .  S
C789        H791   1.082       .  S
Cu792       N795   2.067       .  S
Cu793       N803   2.078       .  S
Cu794       N796   2.067       .  S
Cu794       N802   2.068       .  S
N795        N796   1.319       .  A
N795        C799   1.342       .  A
N796        C797   1.343       .  A
C797        C798   1.389       .  A
C797        H800   1.076       .  S
C798        C799   1.389       .  A
C798        C933   1.491       .  S
C799        H801   1.082       .  S
N802        N803   1.322       .  A
N802        C806   1.344       .  A
N803        C804   1.345       .  A
C804        C805   1.384       .  A
C804        H807   1.082       .  S
C805        C806   1.381       .  A
C805        C853   1.477       .  S
C806        H808   1.081       .  S
N809        N810   1.322       .  A
N809        C813   1.346       .  A
N809       Cu817   2.074       .  S
N810        C811   1.342       .  A
N810       Cu816   2.063       .  S
C811        C812   1.378       .  A
C811        H814   1.082       .  S
C812        C813   1.382       .  A
C812        C834   1.470       .  S
C813        H815   1.082       .  S
Cu816       N819   2.062       .  S
Cu817       N827   2.074       .  S
Cu818       N820   2.078       .  S
Cu818       N826   2.078       .  S
N819        N820   1.318       .  A
N819        C823   1.342       .  A
N820        C821   1.344       .  A
C821        C822   1.393       .  A
C821        H824   1.082       .  S
C822        C823   1.389       .  A
C822        C949   1.497       .  S
C823        H825   1.075       .  S
N826        N827   1.324       .  A
N826        C830   1.345       .  A
N827        C828   1.345       .  A
C828        C829   1.381       .  A
C828        H831   1.082       .  S
C829        C830   1.380       .  A
C829        C869   1.471       .  S
C830        H832   1.082       .  S
C833        C834   1.400   1_554  A
C833        C838   1.405       .  A
C833        H840   1.083       .  S
C834        C835   1.414       .  A
C835        C836   1.407   1_556  A
C835        C842   1.517       .  S
C836        C837   1.402       .  A
C836        H841   1.083       .  S
C837        C838   1.415       .  A
C838        C839   1.517       .  S
C839        F843   1.384       .  S
C839        F844   1.383       .  S
C839        F845   1.382       .  S
C842        F846   1.383       .  S
C842        F847   1.383       .  S
C842        F848   1.385       .  S
C849        C850   1.404       .  A
C849        C854   1.407       .  A
C849        H856   1.083       .  S
C851        C858   1.520       .  S
C852        C853   1.401       .  A
C852        H857   1.083       .  S
C853        C854   1.417       .  A
C854        C855   1.519       .  S
C855        F859   1.385       .  S
C855        F860   1.381       .  S
C855        F861   1.383       .  S
C858        F862   1.383       .  S
C858        F863   1.380       .  S
C858        F864   1.385       .  S
C865        C866   1.401       .  A
C865        C870   1.406       .  A
C865        H872   1.083       .  S
C866        C867   1.414       .  A
C867        C868   1.405       .  A
C867        C874   1.518       .  S
C868        C869   1.401       .  A
C868        H873   1.083       .  S
C869        C870   1.414       .  A
C870        C871   1.517       .  S
C871        F875   1.385       .  S
C871        F876   1.383       .  S
C871        F877   1.383       .  S
C874        F878   1.383       .  S
C874        F879   1.382       .  S
C874        F880   1.384       .  S
C881        C886   1.408       .  A
C881        H888   1.083       .  S
C882        C883   1.420       .  A
C883        C884   1.405       .  A
C883        C890   1.521       .  S
C884        H889   1.083       .  S
C885        C886   1.418       .  A
C886        C887   1.519       .  S
C887        F891   1.385       .  S
C887        F892   1.383       .  S
C887        F893   1.381       .  S
C890        F894   1.381       .  S
C890        F895   1.383       .  S
C890        F896   1.385       .  S
C897        C898   1.406       .  A
C897        C902   1.409   1_556  A
C897        H904   1.083       .  S
C898        C899   1.423       .  A
C899        C900   1.404   1_556  A
C899        C906   1.521       .  S
C900        C901   1.402       .  A
C900        H905   1.084       .  S
C901        C902   1.417       .  A
C902        C903   1.519       .  S
C903        F907   1.385       .  S
C903        F908   1.383       .  S
C903        F909   1.381       .  S
C906        F910   1.381       .  S
C906        F911   1.383       .  S
C906        F912   1.385       .  S
C913        C914   1.401       .  A
C913        C918   1.407       .  A
C913        H920   1.083       .  S
C914        C915   1.416       .  A
C915        C916   1.406       .  A
C915        C922   1.519       .  S
C916        C917   1.402       .  A
C916        H921   1.083       .  S
C917        C918   1.419       .  A
C918        C919   1.520       .  S
C919        F923   1.384       .  S
C919        F924   1.381       .  S
C919        F925   1.384       .  S
C922        F926   1.383       .  S
C922        F927   1.381       .  S
C922        F928   1.384       .  S
C929        C930   1.403       .  A
C929        C934   1.406       .  A
C929        H936   1.083       .  S
C930        C931   1.418       .  A
C931        C932   1.406       .  A
C931        C938   1.520       .  S
C932        C933   1.407       .  A
C932        H937   1.082       .  S
C933        C934   1.423       .  A
C934        C935   1.520       .  S
C935        F939   1.385       .  S
C935        F940   1.383       .  S
C935        F941   1.381       .  S
C938        F942   1.384       .  S
C938        F943   1.380       .  S
C938        F944   1.385       .  S
C945        C946   1.399       .  A
C945        C950   1.409       .  A
C945        H952   1.083       .  S
C946        C947   1.412       .  A
C947        C948   1.405       .  A
C947        C954   1.519       .  S
C948        C949   1.409       .  A
C948        H953   1.082       .  S
C949        C950   1.428       .  A
C950        C951   1.520       .  S
C951        F955   1.385       .  S
C951        F956   1.381       .  S
C951        F957   1.383       .  S
C954        F958   1.383       .  S
C954        F959   1.381       .  S
C954        F960   1.385       .  S
C961        C962   1.400       .  A
C961        C966   1.405       .  A
C961        H968   1.083       .  S
C962        C963   1.415       .  A
C963        C964   1.407       .  A
C963        C970   1.518       .  S
C964        C965   1.401       .  A
C964        H969   1.083       .  S
C965        C966   1.415       .  A
C966        C967   1.518       .  S
C967        F971   1.384       .  S
C967        F972   1.383       .  S
C967        F973   1.382       .  S
C970        F974   1.382       .  S
C970        F975   1.383       .  S
C970        F976   1.384       .  S
C977        C978   1.403       .  A
C977        C982   1.409       .  A
C977        H984   1.083       .  S
C978        C979   1.422       .  A
C979        C980   1.406       .  A
C979        C986   1.521       .  S
C980        C981   1.403       .  A
C980        H985   1.083       .  S
C981        C982   1.422       .  A
C982        C983   1.520       .  S
C983        F987   1.385       .  S
C983        F988   1.381       .  S
C983        F989   1.383       .  S
C986        F990   1.383       .  S
C986        F991   1.381       .  S
C986        F992   1.385       .  S
C993        C994   1.405       .  A
C993        C998   1.408       .  A
C993       H1000   1.081       .  S
C994        C995   1.422       .  A
C995        C996   1.410       .  A
C995       C1002   1.520       .  S
C996        C997   1.408       .  A
C996       H1001   1.080       .  S
C997        C998   1.427       .  A
C998        C999   1.521       .  S
C999       F1003   1.385       .  S
C999       F1004   1.382       .  S
C999       F1005   1.382       .  S
C1002      F1006   1.382       .  S
C1002      F1007   1.382       .  S
C1002      F1008   1.385       .  S
C1009      C1010   1.401       .  A
C1009      C1014   1.407       .  A
C1009      H1016   1.083       .  S
C1010      C1011   1.417       .  A
C1011      C1012   1.405       .  A
C1011      C1018   1.520       .  S
C1012      C1013   1.408       .  A
C1012      H1017   1.081       .  S
C1013      C1014   1.427       .  A
C1014      C1015   1.520       .  S
C1015      F1019   1.385       .  S
C1015      F1020   1.382       .  S
C1015      F1021   1.383       .  S
C1018      F1022   1.381       .  S
C1018      F1023   1.383       .  S
C1018      F1024   1.385       .  S
C1025      C1026   1.410       .  A
C1025      C1030   1.413       .  A
C1025      H1032   1.078       .  S
C1026      C1027   1.426       .  A
C1027      C1028   1.408       .  A
C1027      C1034   1.521       .  S
C1028      C1029   1.410       .  A
C1028      H1033   1.074       .  S
C1029      C1030   1.427       .  A
C1030      C1031   1.519       .  S
C1031      F1035   1.385       .  S
C1031      F1037   1.383       .  S
C1034      F1038   1.383       .  S
C1034      F1039   1.382       .  S
C1034      F1040   1.385       .  S
C1041      C1042   1.403       .  A
C1041      C1046   1.407       .  A
C1041      H1048   1.083       .  S
C1042      C1043   1.415       .  A
C1043      C1044   1.406       .  A
C1043      C1050   1.518       .  S
C1044      C1045   1.402       .  A
C1044      H1049   1.083       .  S
C1045      C1046   1.417       .  A
C1046      C1047   1.519       .  S
C1047      F1051   1.385       .  S
C1047      F1052   1.383       .  S
C1047      F1053   1.381       .  S
C1050      F1054   1.383       .  S
C1050      F1055   1.382       .  S
C1050      F1056   1.385       .  S
C1057      C1058   1.402       .  A
C1057      C1062   1.405       .  A
C1057      H1064   1.083       .  S
C1058      C1059   1.415       .  A
C1059      C1060   1.407       .  A
C1059      C1066   1.518       .  S
C1060      C1061   1.402       .  A
C1060      H1065   1.083       .  S
C1061      C1062   1.413       .  A
C1062      C1063   1.518       .  S
C1063      F1067   1.385       .  S
C1063      F1068   1.383       .  S
C1063      F1069   1.382       .  S
C1066      F1070   1.382       .  S
C1066      F1071   1.383       .  S
C1066      F1072   1.385       .  S
C1073      C1074   1.406       .  A
C1073      C1078   1.408       .  A
C1073      H1080   1.082       .  S
C1074      C1075   1.422       .  A
C1075      C1076   1.408       .  A
C1075      C1082   1.520       .  S
C1076      C1077   1.404       .  A
C1076      H1081   1.083       .  S
C1077      C1078   1.419       .  A
C1078      C1079   1.519       .  S
C1079      F1083   1.385       .  S
C1079      F1084   1.381       .  S
C1079      F1085   1.383       .  S
C1082      F1086   1.383       .  S
C1082      F1087   1.381       .  S
C1082      F1088   1.385       .  S
