geometry optimzed in LAMMPS
_audit_creation_date              2020-11-30 
_audit_creation_method            'lammps2cif' 
_symmetry_space_group_name_H-M    'P1' 
_symmetry_Int_Tables_number       1 
_symmetry_cell_setting            triclinic 
loop_ 
_symmetry_equiv_pos_as_xyz 
  x,y,z 
_cell_length_a                    41.457318936674895 
_cell_length_b                    41.31202607005259 
_cell_length_c                    63.13830701751047 
_cell_angle_alpha                 89.91298721278253 
_cell_angle_beta                  90.2929196189513 
_cell_angle_gamma                 84.33098201017451 
loop_ 
_atom_site_label 
_atom_site_type_symbol 
_atom_site_fract_x 
_atom_site_fract_y 
_atom_site_fract_z 
_atom_site_charge 
O1          O  0.46485017  0.03670519  0.52073027    -0.72390
O2          O  0.47180833  0.46529169  0.47822315    -0.73380
O3          O  0.47110841  0.46835334  0.52406843    -0.61990
O4          O  0.46682904  0.03351110  0.47626019    -0.70410
O5          O  0.01999592  0.03314514  0.47774995    -0.69960
O6          O  0.02476962  0.46641919  0.52411983    -0.61210
O7          O  0.02529563  0.46489806  0.47805808    -0.73720
O8          O  0.01820027  0.03490249  0.52277625    -0.72500
Cu9        Cu  0.46685519  0.00075330  0.49979342     1.04560
Cu10       Cu  0.02395160  0.49959951  0.50070372     1.04330
C11         C  0.49014695  0.04667712  0.52898572     0.93800
C12         C  0.99923072  0.45580236  0.47005849     0.92940
C13         C  0.49862690  0.45855181  0.53231961     0.85090
C14         C  0.99292087  0.04382399  0.46939222     0.91360
C15         C  0.49649113  0.99702377  0.74888334    -0.01940
C16         C  0.49928894  0.99934888  0.24957964    -0.01940
N17         N  0.00745043  0.37723123  0.35553607    -0.26740
N18         N  0.02208844  0.40347133  0.35151365    -0.34600
C19         C  0.02728137  0.41854495  0.36993068     0.01600
C20         C  0.01585877  0.40040077  0.38628804     0.07620
C21         C  0.00325196  0.37448000  0.37654444    -0.05470
H22         H  0.03653933  0.44202364  0.37123716     0.08290
H23         H  0.99005377  0.35629188  0.38400726     0.09490
Cu24       Cu  0.02859313  0.41857363  0.32049923     0.44170
Cu25       Cu  0.99168379  0.34901024  0.33154933     0.41990
Cu26       Cu  0.00114559  0.36718381  0.27625832     0.43880
N27         N  0.51966794  0.43389294  0.28941399    -0.34130
N28         N  0.50729493  0.41683855  0.27418418    -0.28380
C29         C  0.49859754  0.43700756  0.25789549    -0.04480
C30         C  0.50543895  0.46839472  0.26310093     0.07730
C31         C  0.52010350  0.46480888  0.28289641     0.01530
H32         H  0.48745701  0.42947961  0.24342250     0.09180
H33         H  0.52948852  0.48356513  0.29235889     0.08260
N34         N  0.99418195  0.32056999  0.28727900    -0.35580
N35         N  0.98838941  0.31598611  0.30756496    -0.27760
C36         C  0.98770854  0.28432856  0.31136744    -0.03000
C37         C  0.99394048  0.26738251  0.29282091     0.05610
C38         C  0.99766458  0.29114268  0.27760715     0.03710
H39         H  0.98587284  0.27421642  0.32707981     0.08810
H40         H  0.00515258  0.28718644  0.26134150     0.07650
O41         O  0.03096338  0.02093770  0.02356293    -0.72390
O42         O  0.46439730  0.03113347  0.97704152    -0.73380
O43         O  0.46325174  0.03059236  0.02234861    -0.61990
O44         O  0.03166916  0.02185199  0.97776189    -0.70410
O45         O  0.02953578  0.46839420  0.97739486    -0.69960
O46         O  0.46137711  0.47721922  0.02241618    -0.61210
O47         O  0.46225318  0.47774601  0.97691202    -0.73720
O48         O  0.02865254  0.46743890  0.02332476    -0.72500
Cu49       Cu  0.49772771  0.02795620  0.00021558     1.04560
Cu50       Cu  0.49546866  0.47084012  0.00002491     1.04330
C51         C  0.03856711  0.49282713  0.03166392     0.93800
C52         C  0.45430645  0.50580407  0.96886522     0.92940
C53         C  0.45283584  0.50518541  0.03034080     0.85090
C54         C  0.03936324  0.49408496  0.96936628     0.91360
N55         N  0.37531410  0.00129768  0.14456139    -0.26740
N56         N  0.40494091  0.98772572  0.14818181    -0.34600
C57         C  0.42092632  0.98454417  0.12974387     0.01600
C58         C  0.39994154  0.99626548  0.11377540     0.07620
C59         C  0.37120765  0.00677508  0.12368427    -0.05470
H60         H  0.44630714  0.97594005  0.12818099     0.08290
H61         H  0.34959965  0.01896149  0.11644979     0.09490
Cu62       Cu  0.42161417  0.97914563  0.17871071     0.44170
Cu63       Cu  0.34420838  0.01280552  0.16916931     0.41990
Cu64       Cu  0.36650317  0.99837754  0.22450703     0.43880
N65         N  0.43631153  0.98547235  0.20956201    -0.34130
N66         N  0.41751462  0.99421091  0.22586771    -0.28380
C67         C  0.43674416  0.00042640  0.24238237    -0.04480
C68         C  0.46906911  0.99605345  0.23602419     0.07730
C69         C  0.46747909  0.98542571  0.21529472     0.01530
H70         H  0.42791349  0.00805899  0.25786887     0.09180
H71         H  0.48745561  0.97810811  0.20486609     0.08260
N72         N  0.31830310  0.00349138  0.21348865    -0.35580
N73         N  0.31184291  0.01087361  0.19342856    -0.27760
C74         C  0.28032405  0.00996542  0.18961637    -0.03000
C75         C  0.26548876  0.00113772  0.20788410     0.05610
C76         C  0.29020409  0.99747013  0.22299214     0.03710
H77         H  0.26952293  0.01295786  0.17401225     0.08810
H78         H  0.28838873  0.98861759  0.23903994     0.07650
N79         N  0.00851825  0.11903148  0.35483850    -0.26740
N80         N  0.99478630  0.09216783  0.35117250    -0.34600
C81         C  0.98937418  0.07767783  0.36964767     0.01600
C82         C  0.99972321  0.09677794  0.38583446     0.07620
C83         C  0.01182198  0.12288682  0.37586828    -0.05470
H84         H  0.97810882  0.05529166  0.37120984     0.08290
H85         H  0.02117807  0.14362249  0.38329283     0.09490
Cu86       Cu  0.98340768  0.07860136  0.32095093     0.44170
Cu87       Cu  0.01812300  0.14909456  0.33017762     0.41990
Cu88       Cu  0.99617652  0.13221188  0.27524182     0.43880
N89         N  0.48435508  0.06422292  0.28978688    -0.34130
N90         N  0.49099308  0.08214682  0.27330195    -0.28380
C91         C  0.49583500  0.06232431  0.25642870    -0.04480
C92         C  0.49279674  0.03036054  0.26274938     0.07730
C93         C  0.48427051  0.03311665  0.28387024     0.01530
H94         H  0.50264059  0.07034189  0.24091109     0.09180
H95         H  0.47932278  0.01387700  0.29460980     0.08260
N96         N  0.00354441  0.17875871  0.28649918    -0.35580
N97         N  0.01337183  0.18288932  0.30618962    -0.27760
C98         C  0.01351071  0.21453258  0.31017194    -0.03000
C99         C  0.00294138  0.23193460  0.29243024     0.05610
C100        C  0.99703167  0.20851696  0.27744083     0.03710
H101        H  0.01861169  0.22417602  0.32561808     0.08810
H102        H  0.98646830  0.21280012  0.26185444     0.07650
N103        N  0.11931936  0.49727581  0.14577367    -0.26740
N104        N  0.09180029  0.51500990  0.14970755    -0.34600
C105        C  0.07479593  0.51944074  0.13158887     0.01600
C106        C  0.09264486  0.50375019  0.11543648     0.07620
C107        C  0.12086208  0.49007178  0.12500718    -0.05470
H108        H  0.05038966  0.53133543  0.13047966     0.08290
H109        H  0.14013264  0.47445249  0.11768945     0.09490
Cu110      Cu  0.07724752  0.52578027  0.18041291     0.44170
Cu111      Cu  0.15120258  0.48264950  0.16986708     0.41990
Cu112      Cu  0.13179487  0.49824272  0.22509965     0.43880
N113        N  0.06237953  0.51672431  0.21090040    -0.34130
N114        N  0.08109123  0.50451964  0.22657723    -0.28380
C115        C  0.06193062  0.49627330  0.24250015    -0.04480
C116        C  0.02957810  0.50294151  0.23641062     0.07730
C117        C  0.03123313  0.51716742  0.21658327     0.01530
H118        H  0.07091283  0.48582738  0.25737025     0.09180
H119        H  0.01122334  0.52689093  0.20668080     0.08260
N120        N  0.17935577  0.49085372  0.21388238    -0.35580
N121        N  0.18495829  0.48286760  0.19387496    -0.27760
C122        C  0.21654616  0.48255266  0.18994166    -0.03000
C123        C  0.23218970  0.49128100  0.20806577     0.05610
C124        C  0.20791377  0.49613895  0.22319173     0.03710
H125        H  0.22686349  0.47918920  0.17429930     0.08810
H126        H  0.21033849  0.50556432  0.23904289     0.07650
N127        N  0.37566766  0.50137252  0.85432246    -0.26740
N128        N  0.40486190  0.48705845  0.85048377    -0.34600
C129        C  0.42170298  0.48409956  0.86872875     0.01600
C130        C  0.40173638  0.49681574  0.88481911     0.07620
C131        C  0.37266877  0.50753706  0.87515617    -0.05470
H132        H  0.44698404  0.47487491  0.87005955     0.08290
H133        H  0.35158943  0.52030538  0.88250301     0.09490
Cu134      Cu  0.41977734  0.47734521  0.81978883     0.44170
Cu135      Cu  0.34373442  0.51293737  0.82993963     0.41990
Cu136      Cu  0.36362981  0.49893222  0.77431956     0.43880
N137        N  0.43363162  0.48385462  0.78882849    -0.34130
N138        N  0.41465523  0.49398423  0.77274046    -0.28380
C139        C  0.43374485  0.50052310  0.75631057    -0.04480
C140        C  0.46619122  0.49487523  0.76251558     0.07730
C141        C  0.46470660  0.48299582  0.78297886     0.01530
H142        H  0.42476176  0.50901405  0.74095505     0.09180
H143        H  0.48476411  0.47436045  0.79317068     0.08260
N144        N  0.31586400  0.50418808  0.78587231    -0.35580
N145        N  0.31039054  0.51138231  0.80601449    -0.27760
C146        C  0.27900427  0.51094460  0.81019817    -0.03000
C147        C  0.26316367  0.50259894  0.79211231     0.05610
C148        C  0.28719257  0.49874634  0.77669765     0.03710
H149        H  0.26895447  0.51415096  0.82592027     0.08810
H150        H  0.28447874  0.49034752  0.76061959     0.07650
N151        N  0.49227892  0.37538580  0.64611166    -0.26740
N152        N  0.51374278  0.39611609  0.65023562    -0.34240
C153        C  0.52153102  0.41019572  0.63205320     0.01600
C154        C  0.50357058  0.39835325  0.61564881     0.07620
C155        C  0.48551297  0.37594723  0.62518805    -0.05470
H156        H  0.53723057  0.42953237  0.63108082     0.08290
H157        H  0.46739399  0.36257974  0.61775427     0.09490
Cu158      Cu  0.52502782  0.40992168  0.68090738     0.44170
Cu159      Cu  0.47357443  0.34865766  0.66994162     0.41990
Cu160      Cu  0.49315807  0.36470137  0.72447818     0.43880
N161        N  0.51654896  0.42873464  0.71118510    -0.34130
N162        N  0.50215374  0.41342821  0.72630323    -0.28380
C163        C  0.49332075  0.43475497  0.74180405    -0.04480
C164        C  0.50231912  0.46526572  0.73626349     0.07730
C165        C  0.51824989  0.45981898  0.71705799     0.01530
H166        H  0.48058582  0.42858076  0.75592130     0.09180
H167        H  0.52916902  0.47747158  0.70750303     0.08260
N168        N  0.48337296  0.31896092  0.71374899    -0.35580
N169        N  0.47378233  0.31483412  0.69402351    -0.27760
C170        C  0.47310969  0.28311294  0.69027574    -0.03000
C171        C  0.48319710  0.26587962  0.70824913     0.05610
C172        C  0.48934489  0.28939793  0.72303649     0.03710
H173        H  0.46924004  0.27315309  0.67473157     0.08810
H174        H  0.50056659  0.28524439  0.73844533     0.07650
N175        N  0.50504152  0.12116966  0.64319144    -0.26740
N176        N  0.49495595  0.09238645  0.64658574    -0.34600
C177        C  0.48978185  0.07828969  0.62795327     0.01600
C178        C  0.49616901  0.09966905  0.61193695     0.07620
C179        C  0.50596939  0.12668577  0.62219621    -0.05470
H180        H  0.48097242  0.05467422  0.62620225     0.08290
H181        H  0.51194109  0.14911500  0.61504849     0.09490
Cu182      Cu  0.48613374  0.07609873  0.67659565     0.44170
Cu183      Cu  0.51298160  0.15108187  0.66822590     0.41990
Cu184      Cu  0.49253287  0.12980162  0.72280977     0.43880
N185        N  0.48499396  0.06113900  0.70762606    -0.34130
N186        N  0.48883255  0.07940004  0.72445448    -0.28380
C187        C  0.49188534  0.05976282  0.74156992    -0.04480
C188        C  0.49062644  0.02758097  0.73511459     0.07730
C189        C  0.48507976  0.02994245  0.71351222     0.01530
H190        H  0.49632650  0.06804561  0.75747025     0.09180
H191        H  0.48199046  0.01052420  0.70250211     0.08260
N192        N  0.49810540  0.17737123  0.71251772    -0.35580
N193        N  0.50738003  0.18323458  0.69297611    -0.27760
C194        C  0.50586771  0.21524937  0.68974264    -0.03000
C195        C  0.49479550  0.23101469  0.70785229     0.05610
C196        C  0.49029737  0.20631983  0.72223466     0.03710
H197        H  0.50986316  0.22621661  0.67452575     0.08810
H198        H  0.47957580  0.20912801  0.73779769     0.07650
N199        N  0.11657332  0.49943801  0.85461340    -0.26740
N200        N  0.08752115  0.51389323  0.85027548    -0.34600
C201        C  0.07042183  0.51737713  0.86829846     0.01600
C202        C  0.08999089  0.50476064  0.88479905     0.07620
C203        C  0.11915337  0.49364757  0.87555497    -0.05470
H204        H  0.04516172  0.52677420  0.86919956     0.08290
H205        H  0.13999209  0.48077691  0.88327266     0.09490
Cu206      Cu  0.07287516  0.52256068  0.81924028     0.44170
Cu207      Cu  0.14890896  0.48690947  0.83068508     0.41990
Cu208      Cu  0.12896018  0.49771957  0.77463641     0.43880
N209        N  0.05913270  0.51411961  0.78835996    -0.34130
N210        N  0.07814203  0.50288733  0.77270420    -0.28380
C211        C  0.05919956  0.49505264  0.75641251    -0.04480
C212        C  0.02679010  0.00096822  0.76228036     0.07730
C213        C  0.02814758  0.01437040  0.78234282     0.01530
H214        H  0.06837499  0.48534148  0.74147357     0.09180
H215        H  0.00803393  0.02351774  0.79218503     0.08260
N216        N  0.17661554  0.49257619  0.78635377    -0.35580
N217        N  0.18226962  0.48666441  0.80669204    -0.27760
C218        C  0.21379723  0.48698074  0.81073536    -0.03000
C219        C  0.22944599  0.49393982  0.79232733     0.05610
C220        C  0.20518282  0.49707552  0.77691711     0.03710
H221        H  0.22411134  0.48472998  0.82650212     0.08810
H222        H  0.20767656  0.50446018  0.76060234     0.07650
C223        C  0.43630846  0.50824836  0.94842956    -0.04790
C224        C  0.41068966  0.48880186  0.94454436    -0.01910
C225        C  0.39828613  0.48609771  0.92383107     0.03080
C226        C  0.41151170  0.50270134  0.90692923    -0.04790
C227        C  0.43550093  0.02354842  0.91089466    -0.01890
C228        C  0.44803034  0.02632219  0.93149738     0.03080
C229        C  0.39733407  0.47121896  0.96178499     0.37730
C230        C  0.44736132  0.04247660  0.89371051     0.37720
C231        C  0.47461812  0.04618113  0.93479190     0.36140
C232        C  0.37285818  0.46516635  0.91975995     0.36150
N233        N  0.49586739  0.06198999  0.93726111    -0.38670
N234        N  0.35255597  0.44847188  0.91652359    -0.38680
N235        N  0.45666343  0.05761742  0.87999495    -0.38120
N236        N  0.38663179  0.45713289  0.97549947    -0.38120
C237        C  0.43365109  0.00755656  0.05021987    -0.04790
C238        C  0.44181852  0.02910664  0.06647956    -0.01910
C239        C  0.42917107  0.02645589  0.08698343     0.03080
C240        C  0.40874100  0.00214852  0.09156881    -0.04790
C241        C  0.39849129  0.48232091  0.07524713    -0.01890
C242        C  0.41080271  0.48507150  0.05459347     0.03080
C243        C  0.46524806  0.05240526  0.06288573     0.37730
C244        C  0.37639536  0.45816252  0.07989570     0.37720
C245        C  0.40052822  0.46408074  0.03799520     0.36140
C246        C  0.43773983  0.04837141  0.10360842     0.36150
N247        N  0.39235328  0.44713541  0.02485634    -0.38670
N248        N  0.44441959  0.06584678  0.11688275    -0.38680
N249        N  0.35878247  0.43888351  0.08362915    -0.38120
N250        N  0.48399503  0.07095958  0.06017422    -0.38120
C251        C  0.05634419  0.49247217  0.94862192    -0.04790
C252        C  0.08247897  0.01129919  0.94478634    -0.01910
C253        C  0.09444149  0.01428128  0.92402580     0.03080
C254        C  0.07983894  0.49915042  0.90689567    -0.04790
C255        C  0.05479369  0.47922065  0.91079798    -0.01890
C256        C  0.04308696  0.47583233  0.93151045     0.03080
C257        C  0.09663761  0.02817023  0.96209581     0.37730
C258        C  0.04090077  0.46218332  0.89339962     0.37720
C259        C  0.01580421  0.45691044  0.93472996     0.36140
C260        C  0.12082689  0.03406286  0.92015515     0.36150
N261        N  0.49415946  0.44172770  0.93710419    -0.38670
N262        N  0.14192193  0.04980758  0.91708623    -0.38680
N263        N  0.02986975  0.44863491  0.87951022    -0.38120
N264        N  0.10790523  0.04187088  0.97581618    -0.38120
C265        C  0.05568494  0.49038518  0.05237750    -0.04790
C266        C  0.08583366  0.00303663  0.05516604    -0.01910
C267        C  0.09875709  0.00620402  0.07574041     0.03080
C268        C  0.08107668  0.49752746  0.09364295    -0.04790
C269        C  0.05201061  0.48288502  0.09072439    -0.01890
C270        C  0.03965275  0.47885487  0.07018736     0.03080
C271        C  0.10377707  0.01209393  0.03681193     0.37730
C272        C  0.03480800  0.47163018  0.10887514     0.37720
C273        C  0.00996130  0.46335718  0.06762174     0.36140
C274        C  0.12966114  0.01934191  0.07847137     0.36150
N275        N  0.48658683  0.45046359  0.06602674    -0.38670
N276        N  0.15442130  0.02967329  0.08059927    -0.38680
N277        N  0.02106383  0.46276024  0.12334856    -0.38120
N278        N  0.11831667  0.01900630  0.02217128    -0.38120
C279        C  0.00962494  0.41147065  0.40834952    -0.04790
C280        C  0.02955086  0.39888035  0.42521237    -0.01910
C281        C  0.02522568  0.41201076  0.44581287     0.03080
C282        C  0.00045575  0.43733461  0.44971511    -0.04790
C283        C  0.47867611  0.44776216  0.43305355    -0.01890
C284        C  0.48346576  0.43510173  0.41247986     0.03080
C285        C  0.05469510  0.37267074  0.42127861     0.37730
C286        C  0.45184941  0.47241438  0.43659954     0.37720
C287        C  0.46162040  0.44660650  0.39540407     0.36140
C288        C  0.04587568  0.39908996  0.46305572     0.36150
N289        N  0.44423064  0.45571197  0.38178673    -0.38670
N290        N  0.06222996  0.38871358  0.47686839    -0.38680
N291        N  0.43006444  0.49171004  0.43920624    -0.38120
N292        N  0.07461804  0.35159934  0.41814330    -0.38120
C293        C  0.49992675  0.44165210  0.55313524    -0.04790
C294        C  0.50109853  0.46048751  0.57165244    -0.01910
C295        C  0.49727880  0.44660413  0.59159568     0.03080
C296        C  0.49966515  0.41251341  0.59390008    -0.04790
C297        C  0.00061648  0.39282421  0.57536896    -0.01890
C298        C  0.99942017  0.40759226  0.55498393     0.03080
C299        C  0.51141354  0.49282042  0.57091776     0.37730
C300        C  0.00414811  0.35771072  0.57723422     0.37720
C301        C  0.99995187  0.38786435  0.53601360     0.36140
C302        C  0.48976214  0.46785719  0.60959821     0.36150
N303        N  0.00057845  0.37223685  0.52079540    -0.38670
N304        N  0.48327738  0.48476337  0.62387187    -0.38680
N305        N  0.00716882  0.32964115  0.57866097    -0.38120
N306        N  0.52190995  0.01754677  0.57176497    -0.38120
C307        C  0.99232453  0.06612635  0.45054610    -0.04790
C308        C  0.46396579  0.07200956  0.43785148    -0.01910
C309        C  0.46621332  0.08342056  0.41693169     0.03080
C310        C  0.99632956  0.09078526  0.40886210    -0.04790
C311        C  0.02318843  0.09069091  0.42267181    -0.01890
C312        C  0.02116503  0.07868119  0.44351708     0.03080
C313        C  0.43223760  0.06703245  0.44610390     0.37730
C314        C  0.05346671  0.10136254  0.41522424     0.37720
C315        C  0.04880586  0.07976400  0.45762423     0.36140
C316        C  0.43737278  0.08759759  0.40366328     0.36150
N317        N  0.07081550  0.08082630  0.46886979    -0.38670
N318        N  0.41446053  0.09081469  0.39302498    -0.38680
N319        N  0.07763637  0.11000112  0.40942167    -0.38120
N320        N  0.40675758  0.06347763  0.45258575    -0.38120
C321        C  0.48698280  0.06958009  0.54736750    -0.04790
C322        C  0.01310310  0.08754256  0.55321780    -0.01910
C323        C  0.01543757  0.09943135  0.57408671     0.03080
C324        C  0.49098471  0.09464024  0.58891261    -0.04790
C325        C  0.46239352  0.08188521  0.58201944    -0.01890
C326        C  0.46046776  0.06893801  0.56150840     0.03080
C327        C  0.03841039  0.09248437  0.53809644     0.37730
C328        C  0.43510210  0.08113141  0.59631120     0.37720
C329        C  0.43223050  0.05241356  0.55607296     0.36140
C330        C  0.04418698  0.11425074  0.58056703     0.36150
N331        N  0.40972467  0.03909691  0.55196860    -0.38670
N332        N  0.06719008  0.12603919  0.58566904    -0.38680
N333        N  0.41341952  0.08041768  0.60771963    -0.38120
N334        N  0.05860592  0.09640157  0.52603896    -0.38120
O335        O  0.46487003  0.53672849  0.52075345    -0.72390
O336        O  0.47178824  0.96527367  0.47819644    -0.73380
O337        O  0.47108286  0.96832805  0.52404050    -0.61990
O338        O  0.46684407  0.53352985  0.47628182    -0.70410
O339        O  0.02000516  0.53310164  0.47774972    -0.69960
O340        O  0.02477222  0.96645488  0.52410927    -0.61210
O341        O  0.02525989  0.96494363  0.47804486    -0.73720
O342        O  0.01818975  0.53486718  0.52277308    -0.72500
Cu343      Cu  0.46687526  0.50077436  0.49981812     1.04560
Cu344      Cu  0.02394402  0.99963939  0.50069795     1.04330
C345        C  0.49016805  0.54670186  0.52900634     0.93800
C346        C  0.99918405  0.95585073  0.47005802     0.92940
C347        C  0.49860031  0.95851547  0.53228877     0.85090
C348        C  0.99292891  0.54378082  0.46939266     0.91360
C349        C  0.49647209  0.49704717  0.74892902    -0.01940
C350        C  0.49923135  0.49935820  0.24960764    -0.01940
N351        N  0.00727381  0.87726442  0.35552662    -0.26740
N352        N  0.02191577  0.90350252  0.35150460    -0.34600
C353        C  0.02709242  0.91858662  0.36992023     0.01600
C354        C  0.01565616  0.90045106  0.38627631     0.07620
C355        C  0.00305627  0.87452502  0.37653424    -0.05470
H356        H  0.03636637  0.94205760  0.37122655     0.08290
H357        H  0.98986783  0.85632992  0.38399779     0.09490
Cu358      Cu  0.02848827  0.91857089  0.32049060     0.44170
Cu359      Cu  0.99157477  0.84900383  0.33153802     0.41990
Cu360      Cu  0.00110353  0.86717765  0.27624362     0.43880
N361        N  0.51969813  0.93387771  0.28938810    -0.34130
N362        N  0.50732617  0.91682753  0.27415582    -0.28380
C363        C  0.49864121  0.93699833  0.25786565    -0.04480
C364        C  0.50549036  0.96838276  0.26307228     0.07730
C365        C  0.52014661  0.96479251  0.28287053     0.01530
H366        H  0.48750196  0.92947444  0.24339112     0.09180
H367        H  0.52953250  0.98354580  0.29233522     0.08260
N368        N  0.99418998  0.82055117  0.28726893    -0.35580
N369        N  0.98838720  0.81595917  0.30755301    -0.27760
C370        C  0.98776030  0.78429460  0.31135640    -0.03000
C371        C  0.99403218  0.76735523  0.29281216     0.05610
C372        C  0.99772852  0.79112356  0.27759930     0.03710
H373        H  0.98592533  0.77417777  0.32706759     0.08810
H374        H  0.00523292  0.78717695  0.26133595     0.07650
O375        O  0.03089298  0.52092919  0.02356102    -0.72390
O376        O  0.46438652  0.53117805  0.97712400    -0.73380
O377        O  0.46328011  0.53059833  0.02242836    -0.61990
O378        O  0.03158927  0.52185232  0.97775891    -0.70410
O379        O  0.02958949  0.96839744  0.97740506    -0.69960
O380        O  0.46144113  0.97720147  0.02237833    -0.61210
O381        O  0.46229293  0.97769531  0.97687736    -0.73720
O382        O  0.02868733  0.96745221  0.02333232    -0.72500
Cu383      Cu  0.49773694  0.52794133  0.00027865     1.04560
Cu384      Cu  0.49552554  0.97084541  0.99997691     1.04330
C385        C  0.03861858  0.99283436  0.03166880     0.93800
C386        C  0.45433148  0.00573345  0.96880748     0.92940
C387        C  0.45285206  0.00517269  0.03028167     0.85090
C388        C  0.03943424  0.99407891  0.96937496     0.91360
N389        N  0.37528214  0.50120130  0.14460509    -0.26740
N390        N  0.40489594  0.48759658  0.14822772    -0.34600
C391        C  0.42088532  0.48440619  0.12979153     0.01600
C392        C  0.39991599  0.49615733  0.11382206     0.07620
C393        C  0.37118766  0.50669185  0.12372887    -0.05470
H394        H  0.44626335  0.47578854  0.12823189     0.08290
H395        H  0.34959703  0.51891460  0.11649492     0.09490
Cu396      Cu  0.42156112  0.47902362  0.17875908     0.44170
Cu397      Cu  0.34418451  0.51275806  0.16920848     0.41990
Cu398      Cu  0.36644649  0.49834625  0.22454511     0.43880
N399        N  0.43625670  0.48541670  0.20960359    -0.34130
N400        N  0.41745845  0.49418464  0.22590349    -0.28380
C401        C  0.43668657  0.50043560  0.24241128    -0.04480
C402        C  0.46901160  0.49605664  0.23605398     0.07730
C403        C  0.46742384  0.48538825  0.21533360     0.01530
H404        H  0.42785475  0.50809251  0.25789294     0.09180
H405        H  0.48740265  0.47805415  0.20491019     0.08260
N406        N  0.31824966  0.50347302  0.21352068    -0.35580
N407        N  0.31180318  0.51085466  0.19345908    -0.27760
C408        C  0.28028517  0.50995948  0.18963907    -0.03000
C409        C  0.26543525  0.50114063  0.20790321     0.05610
C410        C  0.29014143  0.49746521  0.22301771     0.03710
H411        H  0.26949448  0.51295404  0.17403209     0.08810
H412        H  0.28831283  0.48861723  0.23906560     0.07650
N413        N  0.00851007  0.61905089  0.35485116    -0.26740
N414        N  0.99473181  0.59221353  0.35118526    -0.34600
C415        C  0.98929375  0.57773533  0.36966011     0.01600
C416        C  0.99967308  0.59681441  0.38584803     0.07620
C417        C  0.01181745  0.62289969  0.37588168    -0.05470
H418        H  0.97800192  0.55536424  0.37122072     0.08290
H419        H  0.02121706  0.64361212  0.38330641     0.09490
Cu420      Cu  0.98334858  0.57863548  0.32096724     0.44170
Cu421      Cu  0.01819628  0.64908927  0.33019052     0.41990
Cu422      Cu  0.99617924  0.63220498  0.27526756     0.43880
N423        N  0.48431422  0.56423797  0.28981211    -0.34130
N424        N  0.49095380  0.58215643  0.27332522    -0.28380
C425        C  0.49578488  0.56233190  0.25645264    -0.04480
C426        C  0.49273859  0.53037114  0.26277560     0.07730
C427        C  0.48421920  0.53313145  0.28389766     0.01530
H428        H  0.50259306  0.57034507  0.24093451     0.09180
H429        H  0.47927363  0.51389376  0.29463945     0.08260
N430        N  0.00362601  0.67873827  0.28650807    -0.35580
N431        N  0.01349246  0.68287213  0.30618969    -0.27760
C432        C  0.01366362  0.71451725  0.31015962    -0.03000
C433        C  0.00307062  0.73191377  0.29241983     0.05610
C434        C  0.99711578  0.70849213  0.27744486     0.03710
H435        H  0.01877916  0.72416946  0.32560096     0.08810
H436        H  0.98650935  0.71277173  0.26187017     0.07650
N437        N  0.11938765  0.99723994  0.14577409    -0.26740
N438        N  0.09188169  0.01499790  0.14970643    -0.34600
C439        C  0.07488002  0.01943858  0.13158741     0.01600
C440        C  0.09271711  0.00372975  0.11543668     0.07620
C441        C  0.12092466  0.99003023  0.12500839    -0.05470
H442        H  0.05048158  0.03135232  0.13047714     0.08290
H443        H  0.14018331  0.97439352  0.11769215     0.09490
Cu444      Cu  0.07733273  0.02578522  0.18041054     0.44170
Cu445      Cu  0.15126234  0.98259304  0.16986724     0.41990
Cu446      Cu  0.13185661  0.99820528  0.22509542     0.43880
N447        N  0.06244929  0.01671987  0.21089332    -0.34130
N448        N  0.08115123  0.00449142  0.22656797    -0.28380
C449        C  0.06198009  0.99623672  0.24248330    -0.04480
C450        C  0.02963049  0.00292576  0.23639087     0.07730
C451        C  0.03129977  0.01717319  0.21657105     0.01530
H452        H  0.07095270  0.98577376  0.25735092     0.09180
H453        H  0.01129757  0.02691963  0.20667006     0.08260
N454        N  0.17941900  0.99081832  0.21387765    -0.35580
N455        N  0.18502069  0.98282036  0.19387207    -0.27760
C456        C  0.21660695  0.98251289  0.18993530    -0.03000
C457        C  0.23225049  0.99125908  0.20805487     0.05610
C458        C  0.20797624  0.99611971  0.22318209     0.03710
H459        H  0.22692162  0.97914639  0.17429236     0.08810
H460        H  0.21040035  0.00555986  0.23902942     0.07650
N461        N  0.37576671  0.00093297  0.85427908    -0.26740
N462        N  0.40494869  0.98659130  0.85043868    -0.34600
C463        C  0.42178341  0.98360249  0.86868603     0.01600
C464        C  0.40182431  0.99633282  0.88477827     0.07620
C465        C  0.37276948  0.00708881  0.87511290    -0.05470
H466        H  0.44706742  0.97438699  0.87001375     0.08290
H467        H  0.35171396  0.01990895  0.88245513     0.09490
Cu468      Cu  0.41987820  0.97698536  0.81973230     0.44170
Cu469      Cu  0.34386981  0.01263156  0.82989963     0.41990
Cu470      Cu  0.36368912  0.99873836  0.77428216     0.43880
N471        N  0.43370458  0.98366618  0.78878210    -0.34130
N472        N  0.41471013  0.99382239  0.77270777    -0.28380
C473        C  0.43377826  0.00043672  0.75628427    -0.04480
C474        C  0.46622881  0.99481515  0.76247871     0.07730
C475        C  0.46477376  0.98287671  0.78292919     0.01530
H476        H  0.42477631  0.00895662  0.74093918     0.09180
H477        H  0.48484969  0.97424396  0.79310729     0.08260
N478        N  0.31593244  0.00406034  0.78583805    -0.35580
N479        N  0.31049149  0.01123456  0.80598564    -0.27760
C480        C  0.27910171  0.01086702  0.81017837    -0.03000
C481        C  0.26322379  0.00258243  0.79209276     0.05610
C482        C  0.28723563  0.99869773  0.77666813     0.03710
H483        H  0.26907396  0.01406824  0.82590657     0.08810
H484        H  0.28448945  0.99032819  0.76058629     0.07650
N485        N  0.49232904  0.87530176  0.64606315    -0.26740
N486        N  0.51378163  0.89604751  0.65017925    -0.34240
C487        C  0.52156567  0.91011305  0.63199125     0.01600
C488        C  0.50361294  0.89824661  0.61559203     0.07620
C489        C  0.48556571  0.87584026  0.62513922    -0.05470
H490        H  0.53724344  0.92946751  0.63101195     0.08290
H491        H  0.46744727  0.86246537  0.61771127     0.09490
Cu492      Cu  0.52504360  0.90991192  0.68084307     0.44170
Cu493      Cu  0.47361469  0.84859906  0.66990200     0.41990
Cu494      Cu  0.49322723  0.86468832  0.72442474     0.43880
N495        N  0.51657444  0.92873574  0.71111960    -0.34130
N496        N  0.50221175  0.91341455  0.72624530    -0.28380
C497        C  0.49338721  0.93472971  0.74175291    -0.04480
C498        C  0.50235401  0.96525104  0.73620991     0.07730
C499        C  0.51825901  0.95982328  0.71699326     0.01530
H500        H  0.48067538  0.92853926  0.75587581     0.09180
H501        H  0.52914985  0.97748913  0.70743318     0.08260
N502        N  0.48341345  0.81894824  0.71371949    -0.35580
N503        N  0.47380789  0.81480350  0.69399937    -0.27760
C504        C  0.47312575  0.78307897  0.69026740    -0.03000
C505        C  0.48322410  0.76586398  0.70824586     0.05610
C506        C  0.48938713  0.78939568  0.72301910     0.03710
H507        H  0.46925305  0.77310241  0.67472835     0.08810
H508        H  0.50062701  0.78525669  0.73842368     0.07650
N509        N  0.50514482  0.62116178  0.64321284    -0.26740
N510        N  0.49506253  0.59237732  0.64660769    -0.34600
C511        C  0.48987380  0.57828727  0.62797530     0.01600
C512        C  0.49624586  0.59967224  0.61195864     0.07620
C513        C  0.50605427  0.62668556  0.62221781    -0.05470
H514        H  0.48105922  0.55467471  0.62622512     0.08290
H515        H  0.51201504  0.64911939  0.61507099     0.09490
Cu516      Cu  0.48624169  0.57608574  0.67661805     0.44170
Cu517      Cu  0.51309284  0.65107064  0.66824659     0.41990
Cu518      Cu  0.49259224  0.62980244  0.72282536     0.43880
N519        N  0.48505982  0.56113843  0.70765075    -0.34130
N520        N  0.48888269  0.57940606  0.72447813    -0.28380
C521        C  0.49190533  0.55977879  0.74159911    -0.04480
C522        C  0.49064057  0.52759579  0.73514948     0.07730
C523        C  0.48512295  0.52994695  0.71354323     0.01530
H524        H  0.49632824  0.56806794  0.75750056     0.09180
H525        H  0.48203630  0.51052539  0.70253520     0.08260
N526        N  0.49817122  0.67736601  0.71253009    -0.35580
N527        N  0.50746849  0.68322634  0.69299302    -0.27760
C528        C  0.50594833  0.71524064  0.68975606    -0.03000
C529        C  0.49484690  0.73100673  0.70785845     0.05610
C530        C  0.49033954  0.70631494  0.72224021     0.03710
H531        H  0.50995306  0.72620572  0.67453978     0.08810
H532        H  0.47959342  0.70912398  0.73779601     0.07650
N533        N  0.11663668  0.99946567  0.85462297    -0.26740
N534        N  0.08756997  0.01389116  0.85029276    -0.34600
C535        C  0.07047756  0.01734499  0.86831974     0.01600
C536        C  0.09006759  0.00474013  0.88481398     0.07620
C537        C  0.11923458  0.99366528  0.87556248    -0.05470
H538        H  0.04521055  0.02671472  0.86922797     0.08290
H539        H  0.14008975  0.98081293  0.88327317     0.09490
Cu540      Cu  0.07291199  0.02256007  0.81925875     0.44170
Cu541      Cu  0.14896075  0.98698220  0.83068557     0.41990
Cu542      Cu  0.12899700  0.99773472  0.77463763     0.43880
N543        N  0.05917187  0.01412540  0.78837578    -0.34130
N544        N  0.07817820  0.00288927  0.77271930    -0.28380
C545        C  0.05923282  0.99504923  0.75643072    -0.04480
C546        C  0.02675582  0.50097010  0.76226032     0.07730
C547        C  0.02810916  0.51436233  0.78232574     0.01530
H548        H  0.06840612  0.98533591  0.74149185     0.09180
H549        H  0.00799302  0.52350036  0.79216884     0.08260
N550        N  0.17665467  0.99262423  0.78634902    -0.35580
N551        N  0.18230921  0.98674389  0.80669045    -0.27760
C552        C  0.21383548  0.98706171  0.81073192    -0.03000
C553        C  0.22948583  0.99398574  0.79231837     0.05610
C554        C  0.20522370  0.99710104  0.77690677     0.03710
H555        H  0.22414958  0.98481637  0.82649872     0.08810
H556        H  0.20772203  0.00444315  0.76058393     0.07650
C557        C  0.43634114  0.00810895  0.94837027    -0.04790
C558        C  0.41069830  0.98867725  0.94452826    -0.01910
C559        C  0.39832803  0.98584762  0.92381707     0.03080
C560        C  0.41161694  0.00230665  0.90687375    -0.04790
C561        C  0.43536837  0.52395206  0.91099778    -0.01890
C562        C  0.44794344  0.52659055  0.93159954     0.03080
C563        C  0.39727869  0.97124659  0.96181547     0.37730
C564        C  0.44715675  0.54302531  0.89386138     0.37720
C565        C  0.47453001  0.54644019  0.93492816     0.36140
C566        C  0.37286671  0.96493579  0.91979577     0.36150
N567        N  0.49578045  0.56223863  0.93742596    -0.38670
N568        N  0.35253766  0.94825652  0.91660098    -0.38680
N569        N  0.45639923  0.55828555  0.88018542    -0.38120
N570        N  0.38652285  0.95728699  0.97556867    -0.38120
C571        C  0.43363826  0.50755780  0.05027965    -0.04790
C572        C  0.44185638  0.52903995  0.06656485    -0.01910
C573        C  0.42921209  0.52635277  0.08706662     0.03080
C574        C  0.40873452  0.50207455  0.09162352    -0.04790
C575        C  0.39854569  0.98232306  0.07521641    -0.01890
C576        C  0.41086188  0.98503389  0.05456056     0.03080
C577        C  0.46533114  0.55230091  0.06299647     0.37730
C578        C  0.37649424  0.95813512  0.07989358     0.37720
C579        C  0.40064534  0.96396190  0.03799038     0.36140
C580        C  0.43782983  0.54820116  0.10371746     0.36150
N581        N  0.39251828  0.94694947  0.02487525    -0.38670
N582        N  0.44454822  0.56562248  0.11701298    -0.38680
N583        N  0.35891575  0.93883372  0.08365019    -0.38120
N584        N  0.48411413  0.57082500  0.06030555    -0.38120
C585        C  0.05642830  0.99244956  0.94863555    -0.04790
C586        C  0.08239418  0.51132223  0.94477235    -0.01910
C587        C  0.09435278  0.51430931  0.92401102     0.03080
C588        C  0.07993485  0.99911217  0.90691196    -0.04790
C589        C  0.05490462  0.97916551  0.91081628    -0.01890
C590        C  0.04318474  0.97579283  0.93152663     0.03080
C591        C  0.09655972  0.52818421  0.96208312     0.37730
C592        C  0.04104359  0.96209232  0.89342209     0.37720
C593        C  0.01589738  0.95687656  0.93474457     0.36140
C594        C  0.12074148  0.53408687  0.92014097     0.36150
N595        N  0.49417677  0.94183614  0.93701069    -0.38670
N596        N  0.14183820  0.54982943  0.91707205    -0.38680
N597        N  0.03004151  0.94851239  0.87953597    -0.38120
N598        N  0.10783305  0.54187735  0.97580472    -0.38120
C599        C  0.05573572  0.99038565  0.05238198    -0.04790
C600        C  0.08576801  0.50306496  0.05516488    -0.01910
C601        C  0.09868541  0.50623919  0.07574040     0.03080
C602        C  0.08114185  0.99751089  0.09364461    -0.04790
C603        C  0.05206063  0.98289393  0.09072925    -0.01890
C604        C  0.03969278  0.97887595  0.07019368     0.03080
C605        C  0.10370387  0.51214351  0.03681280     0.37730
C606        C  0.03485275  0.97165256  0.10888183     0.37720
C607        C  0.00997863  0.96341573  0.06763160     0.36140
C608        C  0.12957601  0.51940283  0.07847429     0.36150
N609        N  0.48660639  0.95051236  0.06597000    -0.38670
N610        N  0.15432572  0.52975447  0.08060462    -0.38680
N611        N  0.02110476  0.96279255  0.12335657    -0.38120
N612        N  0.11823784  0.51907300  0.02217377    -0.38120
C613        C  0.00945668  0.91151001  0.40834350    -0.04790
C614        C  0.02943106  0.89893677  0.42518759    -0.01910
C615        C  0.02514993  0.91207098  0.44579006     0.03080
C616        C  0.00037654  0.93738285  0.44971383    -0.04790
C617        C  0.47864525  0.94773354  0.43302939    -0.01890
C618        C  0.48342847  0.93506794  0.41245646     0.03080
C619        C  0.05457852  0.87273900  0.42123194     0.37730
C620        C  0.45181548  0.97238187  0.43657690     0.37720
C621        C  0.46157070  0.94655899  0.39538393     0.36140
C622        C  0.04584948  0.89916533  0.46301285     0.36150
N623        N  0.44417097  0.95565268  0.38176907    -0.38670
N624        N  0.06224417  0.88880045  0.47680928    -0.38680
N625        N  0.43002901  0.99167541  0.43918477    -0.38120
N626        N  0.07450319  0.85167646  0.41807843    -0.38120
C627        C  0.49989783  0.94159791  0.55309763    -0.04790
C628        C  0.50101830  0.96042232  0.57162275    -0.01910
C629        C  0.49721360  0.94651121  0.59155847     0.03080
C630        C  0.49967070  0.91241721  0.59384927    -0.04790
C631        C  0.00065554  0.89288441  0.57537894    -0.01890
C632        C  0.99943557  0.90764939  0.55499289     0.03080
C633        C  0.51128557  0.99277470  0.57090785     0.37730
C634        C  0.00418228  0.85777106  0.57724541     0.37720
C635        C  0.99993534  0.88791927  0.53602448     0.36140
C636        C  0.48965398  0.96773705  0.60956902     0.36150
N637        N  0.00053705  0.87229016  0.52080756    -0.38670
N638        N  0.48313708  0.98462304  0.62384781    -0.38680
N639        N  0.00720073  0.82970160  0.57867314    -0.38120
N640        N  0.52207219  0.51757710  0.57175252    -0.38120
C641        C  0.99232440  0.56609423  0.45055103    -0.04790
C642        C  0.46397271  0.57203261  0.43787296    -0.01910
C643        C  0.46621408  0.58344963  0.41695389     0.03080
C644        C  0.99629704  0.59080395  0.40887612    -0.04790
C645        C  0.02316909  0.59068480  0.42267739    -0.01890
C646        C  0.02116114  0.57865161  0.44351813     0.03080
C647        C  0.43224657  0.56705676  0.44612932     0.37730
C648        C  0.05344584  0.60135374  0.41522533     0.37720
C649        C  0.04881401  0.57971489  0.45761724     0.36140
C650        C  0.43736897  0.58763179  0.40368992     0.36150
N651        N  0.07083301  0.58076276  0.46885662    -0.38670
N652        N  0.41445293  0.59085249  0.39305523    -0.38680
N653        N  0.07761495  0.60998967  0.40941965    -0.38120
N654        N  0.40676815  0.56350290  0.45261429    -0.38120
C655        C  0.48700784  0.56959721  0.54739119    -0.04790
C656        C  0.01309123  0.58752676  0.55319005    -0.01910
C657        C  0.01543569  0.59942686  0.57405505     0.03080
C658        C  0.49103766  0.59465157  0.58893553    -0.04790
C659        C  0.46244982  0.58187685  0.58205469    -0.01890
C660        C  0.46051308  0.56892776  0.56154509     0.03080
C661        C  0.03838870  0.59246563  0.53806073     0.37730
C662        C  0.43517278  0.58110754  0.59635661     0.37720
C663        C  0.43228915  0.55237345  0.55612373     0.36140
C664        C  0.04418265  0.61425996  0.58052437     0.36150
N665        N  0.40979461  0.53903277  0.55203039    -0.38670
N666        N  0.06718320  0.62606029  0.58561744    -0.38680
N667        N  0.41350124  0.58038211  0.60777286    -0.38120
N668        N  0.05857624  0.59637991  0.52599674    -0.38120
O669        O  0.96484783  0.03676437  0.52075263    -0.72390
O670        O  0.97180527  0.46529630  0.47819498    -0.73380
O671        O  0.97105577  0.46832681  0.52403780    -0.61990
O672        O  0.96683011  0.03358115  0.47628194    -0.70410
O673        O  0.51999371  0.03308690  0.47772657    -0.69960
O674        O  0.52482184  0.46644716  0.52411951    -0.61210
O675        O  0.52529703  0.46490339  0.47805481    -0.73720
O676        O  0.51820154  0.03485974  0.52274994    -0.72500
Cu677      Cu  0.96684424  0.00081974  0.49981019     1.04560
Cu678      Cu  0.52397386  0.49961439  0.50069838     1.04330
C679        C  0.99014746  0.04672255  0.52901341     0.93800
C680        C  0.49922281  0.45580208  0.47007099     0.92940
C681        C  0.99856276  0.45851446  0.53229932     0.85090
C682        C  0.49291676  0.04376050  0.46936988     0.91360
C683        C  0.99648533  0.99703902  0.74891031    -0.01940
C684        C  0.99928837  0.99937354  0.24959259    -0.01940
N685        N  0.50733045  0.37723183  0.35553722    -0.26740
N686        N  0.52195794  0.40347818  0.35151341    -0.34600
C687        C  0.52713654  0.41856264  0.36992857     0.01600
C688        C  0.51571640  0.40041909  0.38628654     0.07620
C689        C  0.50312478  0.37448719  0.37654567    -0.05470
H690        H  0.53639621  0.44204068  0.37123355     0.08290
H691        H  0.48994437  0.35628721  0.38401068     0.09490
Cu692      Cu  0.52849634  0.41855800  0.32049854     0.44170
Cu693      Cu  0.49161747  0.34897817  0.33154899     0.41990
Cu694      Cu  0.50109452  0.36716059  0.27625237     0.43880
N695        N  0.01972296  0.43391775  0.28941974    -0.34130
N696        N  0.00734397  0.41686158  0.27419302    -0.28380
C697        C  0.99862905  0.43703023  0.25790757    -0.04480
C698        C  0.00546414  0.46841940  0.26311138     0.07730
C699        C  0.02014199  0.46483652  0.28290308     0.01530
H700        H  0.98748103  0.42949994  0.24343785     0.09180
H701        H  0.02952528  0.48359656  0.29236318     0.08260
N702        N  0.49417161  0.32053688  0.28727591    -0.35580
N703        N  0.48838379  0.31594470  0.30756190    -0.27760
C704        C  0.48773671  0.28428236  0.31136317    -0.03000
C705        C  0.49398279  0.26734323  0.29281568     0.05610
C706        C  0.49768233  0.29111103  0.27760293     0.03710
H707        H  0.48590671  0.27416524  0.32707461     0.08810
H708        H  0.50516970  0.28716357  0.26133639     0.07650
O709        O  0.53097574  0.02095973  0.02355063    -0.72390
O710        O  0.96435865  0.03116506  0.97707919    -0.73380
O711        O  0.96324187  0.03062605  0.02238210    -0.61990
O712        O  0.53170784  0.02188851  0.97775046    -0.70410
O713        O  0.52961713  0.46838713  0.97743591    -0.69960
O714        O  0.96133229  0.47718721  0.02240581    -0.61210
O715        O  0.96217151  0.47768588  0.97690215    -0.73720
O716        O  0.52869525  0.46741746  0.02336070    -0.72500
Cu717      Cu  0.99770496  0.02795755  0.00023892     1.04560
Cu718      Cu  0.99540771  0.47082465  0.00000114     1.04330
C719        C  0.53864067  0.49279263  0.03169828     0.93800
C720        C  0.95421442  0.50572839  0.96883679     0.92940
C721        C  0.95276728  0.50515520  0.03032080     0.85090
C722        C  0.53946247  0.49406921  0.96940799     0.91360
N723        N  0.87529312  0.00134609  0.14459161    -0.26740
N724        N  0.90491505  0.98775619  0.14820581    -0.34600
C725        C  0.92089145  0.98456993  0.12976476     0.01600
C726        C  0.89990510  0.99630676  0.11380117     0.07620
C727        C  0.87118041  0.00683048  0.12371585    -0.05470
H728        H  0.94626859  0.97595397  0.12819673     0.08290
H729        H  0.84957578  0.01903216  0.11648641     0.09490
Cu730      Cu  0.92159871  0.97916337  0.17873108     0.44170
Cu731      Cu  0.84420109  0.01286708  0.16920383     0.41990
Cu732      Cu  0.86649836  0.99838847  0.22453238     0.43880
N733        N  0.93630421  0.98549247  0.20958034    -0.34130
N734        N  0.91751034  0.99422857  0.22588792    -0.28380
C735        C  0.93674291  0.00044691  0.24240039    -0.04480
C736        C  0.96906656  0.99607846  0.23603887     0.07730
C737        C  0.96747287  0.98545043  0.21530964     0.01530
H738        H  0.92791517  0.00807750  0.25788794     0.09180
H739        H  0.98744749  0.97813459  0.20487913     0.08260
N740        N  0.81829689  0.00350849  0.21351620    -0.35580
N741        N  0.81183539  0.01091532  0.19345988    -0.27760
C742        C  0.78031787  0.01000325  0.18964467    -0.03000
C743        C  0.76548504  0.00114681  0.20790619     0.05610
C744        C  0.79020000  0.99746640  0.22301415     0.03710
H745        H  0.76951756  0.01300838  0.17404094     0.08810
H746        H  0.78838699  0.98858918  0.23905619     0.07650
N747        N  0.50852601  0.11899998  0.35482555    -0.26740
N748        N  0.49477596  0.09214750  0.35115687    -0.34600
C749        C  0.48934876  0.07766053  0.36963053     0.01600
C750        C  0.49970617  0.09675078  0.38581966     0.07620
C751        C  0.51182609  0.12285088  0.37585607    -0.05470
H752        H  0.47807198  0.05528052  0.37118979     0.08290
H753        H  0.52119800  0.14357652  0.38328269     0.09490
Cu754      Cu  0.48340036  0.07858229  0.32093508     0.44170
Cu755      Cu  0.51816752  0.14905555  0.33016728     0.41990
Cu756      Cu  0.49620317  0.13218184  0.27523336     0.43880
N757        N  0.98435651  0.06424657  0.28980124    -0.34130
N758        N  0.99098427  0.08217228  0.27331474    -0.28380
C759        C  0.99582504  0.06234975  0.25644125    -0.04480
C760        C  0.99279659  0.03038464  0.26276319     0.07730
C761        C  0.98427659  0.03313970  0.28388516     0.01530
H762        H  0.00262194  0.07036863  0.24092206     0.09180
H763        H  0.97933426  0.01389957  0.29462576     0.08260
N764        N  0.50359419  0.17872308  0.28648964    -0.35580
N765        N  0.51343383  0.18285099  0.30617776    -0.27760
C766        C  0.51358023  0.21449423  0.31015940    -0.03000
C767        C  0.50300128  0.23189815  0.29242019     0.05610
C768        C  0.49707930  0.20848193  0.27743288     0.03710
H769        H  0.51868396  0.22413720  0.32560523     0.08810
H770        H  0.48650075  0.21276682  0.26185087     0.07650
N771        N  0.61935804  0.49727388  0.14580838    -0.26740
N772        N  0.59184737  0.51502803  0.14973306    -0.34600
C773        C  0.57485527  0.51946189  0.13160992     0.01600
C774        C  0.59270424  0.50375155  0.11546494     0.07620
C775        C  0.62090832  0.49005960  0.12504395    -0.05470
H776        H  0.55045371  0.53136651  0.13049366     0.08290
H777        H  0.64017118  0.47442036  0.11773414     0.09490
Cu778      Cu  0.57727774  0.52580307  0.18043357     0.44170
Cu779      Cu  0.65121384  0.48262503  0.16991002     0.41990
Cu780      Cu  0.63179961  0.49825110  0.22513187     0.43880
N781        N  0.56238944  0.51671652  0.21091118    -0.34130
N782        N  0.58109234  0.50451163  0.22659221    -0.28380
C783        C  0.56192150  0.49625258  0.24250626    -0.04480
C784        C  0.52957228  0.50291061  0.23640577     0.07730
C785        C  0.53123900  0.51714449  0.21658185     0.01530
H786        H  0.57089441  0.48580863  0.25737902     0.09180
H787        H  0.51123505  0.52686985  0.20667516     0.08260
N788        N  0.67936505  0.49084748  0.21392122    -0.35580
N789        N  0.68496696  0.48284041  0.19391727    -0.27760
C790        C  0.71655497  0.48251422  0.18998254    -0.03000
C791        C  0.73220074  0.49125845  0.20810158     0.05610
C792        C  0.70792502  0.49613673  0.22322689     0.03710
H793        H  0.72687060  0.47913532  0.17434071     0.08810
H794        H  0.71035170  0.50557849  0.23907356     0.07650
N795        N  0.87570402  0.50110090  0.85428092    -0.26740
N796        N  0.90486913  0.48671433  0.85044309    -0.34600
C797        C  0.92169195  0.48368263  0.86869396     0.01600
C798        C  0.90174226  0.49642980  0.88478578     0.07620
C799        C  0.87270638  0.50724297  0.87511659    -0.05470
H800        H  0.94696319  0.47442194  0.87002532     0.08290
H801        H  0.85166373  0.52008682  0.88245892     0.09490
Cu802      Cu  0.91980478  0.47708851  0.81973949     0.44170
Cu803      Cu  0.84381759  0.51285449  0.82990115     0.41990
Cu804      Cu  0.86364479  0.49887942  0.77429317     0.43880
N805        N  0.93364912  0.48374822  0.78879013    -0.34130
N806        N  0.91466318  0.49392422  0.77271648    -0.28380
C807        C  0.93373854  0.50052200  0.75629333    -0.04480
C808        C  0.96618706  0.49486809  0.76248691     0.07730
C809        C  0.96472042  0.48292639  0.78293639     0.01530
H810        H  0.92474308  0.50905038  0.74094855     0.09180
H811        H  0.98478957  0.47426852  0.79311291     0.08260
N812        N  0.81588830  0.50423039  0.78584470    -0.35580
N813        N  0.81043869  0.51144367  0.80598598    -0.27760
C814        C  0.77904805  0.51106868  0.81017694    -0.03000
C815        C  0.76318252  0.50273660  0.79209721     0.05610
C816        C  0.78719994  0.49883265  0.77667806     0.03710
H817        H  0.76901406  0.51428149  0.82590290     0.08810
H818        H  0.78446656  0.49041510  0.76060617     0.07650
N819        N  0.99208129  0.37530766  0.64606685    -0.26740
N820        N  0.01354245  0.39604488  0.65018353    -0.34240
C821        C  0.02133582  0.41010517  0.63199630     0.01600
C822        C  0.00338476  0.39824304  0.61559578     0.07620
C823        C  0.98532398  0.37584589  0.62514140    -0.05470
H824        H  0.03702357  0.42945117  0.63101733     0.08290
H825        H  0.96720597  0.36247351  0.61771057     0.09490
Cu826      Cu  0.02483342  0.40990104  0.68084356     0.44170
Cu827      Cu  0.97336396  0.34860675  0.66990794     0.41990
Cu828      Cu  0.99301608  0.36472305  0.72442920     0.43880
N829        N  0.01643087  0.42873495  0.71112320    -0.34130
N830        N  0.00205576  0.41343476  0.72625267    -0.28380
C831        C  0.99327197  0.43475804  0.74176351    -0.04480
C832        C  0.00228200  0.46526310  0.73621918     0.07730
C833        C  0.01816862  0.45981411  0.71699787     0.01530
H834        H  0.98055713  0.42858546  0.75588914     0.09180
H835        H  0.02908095  0.47746143  0.70743471     0.08260
N836        N  0.98320474  0.31897659  0.71373073    -0.35580
N837        N  0.97358567  0.31481987  0.69401458    -0.27760
C838        C  0.97292117  0.28309098  0.69028840    -0.03000
C839        C  0.98304612  0.26588620  0.70826578     0.05610
C840        C  0.98920587  0.28942842  0.72303241     0.03710
H841        H  0.96904672  0.27310597  0.67475200     0.08810
H842        H  0.00046547  0.28530098  0.73843202     0.07650
N843        N  0.00505101  0.12120023  0.64322859    -0.26740
N844        N  0.99494957  0.09242398  0.64662335    -0.34600
C845        C  0.98976957  0.07832880  0.62799144     0.01600
C846        C  0.99616680  0.09970239  0.61197418     0.07620
C847        C  0.00598112  0.12671393  0.62223301    -0.05470
H848        H  0.98095121  0.05471733  0.62624169     0.08290
H849        H  0.01196461  0.14913853  0.61508482     0.09490
Cu850      Cu  0.98611547  0.07613697  0.67663119     0.44170
Cu851      Cu  0.01300705  0.15110983  0.66826260     0.41990
Cu852      Cu  0.99251721  0.12982148  0.72284168     0.43880
N853        N  0.98498634  0.06116307  0.70765848    -0.34130
N854        N  0.98883029  0.07941965  0.72448792    -0.28380
C855        C  0.99189154  0.05977829  0.74160117    -0.04480
C856        C  0.99063141  0.02759813  0.73514285     0.07730
C857        C  0.98507599  0.02996494  0.71354140     0.01530
H858        H  0.99633483  0.06805729  0.75750213     0.09180
H859        H  0.98197890  0.01055071  0.70252987     0.08260
N860        N  0.99806821  0.17739315  0.71254784    -0.35580
N861        N  0.00736430  0.18326269  0.69301172    -0.27760
C862        C  0.00581985  0.21527917  0.68977623    -0.03000
C863        C  0.99470298  0.23103652  0.70787836     0.05610
C864        C  0.99021227  0.20633748  0.72225831     0.03710
H865        H  0.00981529  0.22625007  0.67456043     0.08810
H866        H  0.97945913  0.20913676  0.73781253     0.07650
N867        N  0.61665195  0.49943404  0.85465082    -0.26740
N868        N  0.58757982  0.51385178  0.85032552    -0.34600
C869        C  0.57049615  0.51730406  0.86835592     0.01600
C870        C  0.59009671  0.50470701  0.88484699     0.07620
C871        C  0.61926110  0.49363734  0.87559044    -0.05470
H872        H  0.54522823  0.52666877  0.86926899     0.08290
H873        H  0.64012323  0.48079275  0.88329816     0.09490
Cu874      Cu  0.57289750  0.52252570  0.81929601     0.44170
Cu875      Cu  0.64897627  0.48696429  0.83071092     0.41990
Cu876      Cu  0.62897538  0.49775579  0.77467157     0.43880
N877        N  0.55914843  0.51411746  0.78841060    -0.34130
N878        N  0.57815739  0.50289945  0.77275115    -0.28380
C879        C  0.55921565  0.49507209  0.75645783    -0.04480
C880        C  0.52678440  0.00097195  0.76225860     0.07730
C881        C  0.52812467  0.01438843  0.78231791     0.01530
H882        H  0.56839341  0.48537451  0.74151617     0.09180
H883        H  0.50800053  0.02352248  0.79215576     0.08260
N884        N  0.67663882  0.49266596  0.78637236    -0.35580
N885        N  0.68231213  0.48677091  0.80671029    -0.27760
C886        C  0.71383768  0.48712189  0.81074451    -0.03000
C887        C  0.72946538  0.49408227  0.79232941     0.05610
C888        C  0.70519285  0.49718504  0.77692513     0.03710
H889        H  0.72416433  0.48488053  0.82650814     0.08810
H890        H  0.70767075  0.50455340  0.76060571     0.07650
C891        C  0.93623877  0.50811775  0.94839354    -0.04790
C892        C  0.91060085  0.48868701  0.94453342    -0.01910
C893        C  0.89824006  0.48588362  0.92381722     0.03080
C894        C  0.91153430  0.50236616  0.90688650    -0.04790
C895        C  0.93536088  0.02375565  0.91095343    -0.01890
C896        C  0.94791338  0.02647370  0.93155435     0.03080
C897        C  0.89717570  0.47123138  0.96180686     0.37730
C898        C  0.94715637  0.04277553  0.89379266     0.37720
C899        C  0.97448459  0.04634952  0.93486220     0.36140
C900        C  0.87278181  0.46497582  0.91977695     0.36150
N901        N  0.99572224  0.06216961  0.93734319    -0.38670
N902        N  0.85245572  0.44829932  0.91656633    -0.38680
N903        N  0.95640345  0.05799266  0.88009656    -0.38120
N904        N  0.88641579  0.45725122  0.97554893    -0.38120
C905        C  0.93360466  0.00761307  0.05024614    -0.04790
C906        C  0.94177955  0.02915607  0.06650786    -0.01910
C907        C  0.92913368  0.02650199  0.08701187     0.03080
C908        C  0.90869981  0.00219713  0.09159510    -0.04790
C909        C  0.89847965  0.48229418  0.07526050    -0.01890
C910        C  0.91077044  0.48503672  0.05460040     0.03080
C911        C  0.96521233  0.05245168  0.06291557     0.37730
C912        C  0.87638890  0.45813713  0.07992370     0.37720
C913        C  0.90048750  0.46403356  0.03801204     0.36140
C914        C  0.93770824  0.04841056  0.10363932     0.36150
N915        N  0.89230664  0.44707761  0.02488126    -0.38670
N916        N  0.94439188  0.06588047  0.11691581    -0.38680
N917        N  0.85877995  0.43885947  0.08366910    -0.38120
N918        N  0.98396155  0.07100410  0.06020533    -0.38120
C919        C  0.55645890  0.49243792  0.94866958    -0.04790
C920        C  0.58251366  0.01140058  0.94477116    -0.01910
C921        C  0.59445198  0.01443914  0.92400932     0.03080
C922        C  0.57997287  0.49907990  0.90694661    -0.04790
C923        C  0.55495360  0.47912213  0.91085488    -0.01890
C924        C  0.54322687  0.47576309  0.93156438     0.03080
C925        C  0.59669040  0.02822647  0.96209397     0.37730
C926        C  0.54111129  0.46202301  0.89346532     0.37720
C927        C  0.51594249  0.45684313  0.93478402     0.36140
C928        C  0.62083527  0.03422864  0.92015103     0.36150
N929        N  0.99402446  0.44179008  0.93704851    -0.38670
N930        N  0.64192857  0.04997991  0.91709259    -0.38680
N931        N  0.53012517  0.44842133  0.87958302    -0.38120
N932        N  0.60797340  0.04189090  0.97582503    -0.38120
C933        C  0.55575926  0.49033903  0.05241026    -0.04790
C934        C  0.58587017  0.00305690  0.05515410    -0.01910
C935        C  0.59878979  0.00621674  0.07573053     0.03080
C936        C  0.58114009  0.49751206  0.09367386    -0.04790
C937        C  0.55206892  0.48287706  0.09075874    -0.01890
C938        C  0.53971424  0.47883447  0.07022247     0.03080
C939        C  0.60382234  0.01210904  0.03680285     0.37730
C940        C  0.53485551  0.47164732  0.10891238     0.37720
C941        C  0.51000840  0.46336016  0.06765975     0.36140
C942        C  0.62969755  0.01934518  0.07846631     0.36150
N943        N  0.98655309  0.45043909  0.06598770    -0.38670
N944        N  0.65446108  0.02966823  0.08059819    -0.38680
N945        N  0.52110289  0.46279778  0.12338824    -0.38120
N946        N  0.61837103  0.01901521  0.02216483    -0.38120
C947        C  0.50951179  0.41147731  0.40835362    -0.04790
C948        C  0.52946567  0.39888380  0.42520239    -0.01910
C949        C  0.52517860  0.41201340  0.44580584     0.03080
C950        C  0.50041656  0.43733712  0.44972612    -0.04790
C951        C  0.97874666  0.44776057  0.43302658    -0.01890
C952        C  0.98357098  0.43509553  0.41245690     0.03080
C953        C  0.55459937  0.37267145  0.42125051     0.37730
C954        C  0.95192048  0.47242140  0.43655189     0.37720
C955        C  0.96175307  0.44659553  0.39536568     0.36140
C956        C  0.54585775  0.39908999  0.46303363     0.36150
N957        N  0.94438579  0.45569603  0.38173550    -0.38670
N958        N  0.56223527  0.38871044  0.47683430    -0.38680
N959        N  0.93013751  0.49172588  0.43914098    -0.38120
N960        N  0.57451293  0.35159727  0.41809995    -0.38120
C961        C  0.99982655  0.44159041  0.55310522    -0.04790
C962        C  0.00089691  0.46041344  0.57163381    -0.01910
C963        C  0.99702628  0.44650327  0.59156181     0.03080
C964        C  0.99947192  0.41240974  0.59385113    -0.04790
C965        C  0.50072175  0.39291347  0.57542504    -0.01890
C966        C  0.49947792  0.40766202  0.55503386     0.03080
C967        C  0.01117986  0.49276056  0.57093607     0.37730
C968        C  0.50421656  0.35780113  0.57730123     0.37720
C969        C  0.49991778  0.38791787  0.53607349     0.36140
C970        C  0.98941190  0.46772839  0.60956533     0.36150
N971        N  0.50047104  0.37227682  0.52086299    -0.38670
N972        N  0.98284903  0.48461393  0.62383745    -0.38680
N973        N  0.50720974  0.32973235  0.57873664    -0.38120
N974        N  0.02192716  0.01756234  0.57178610    -0.38120
C975        C  0.49231717  0.06606767  0.45052594    -0.04790
C976        C  0.96397510  0.07206164  0.43786883    -0.01910
C977        C  0.96622640  0.08345983  0.41694648     0.03080
C978        C  0.49631562  0.09074862  0.40884671    -0.04790
C979        C  0.52317763  0.09064408  0.42265463    -0.01890
C980        C  0.52115685  0.07862563  0.44349773     0.03080
C981        C  0.93224510  0.06708953  0.44612038     0.37730
C982        C  0.55345738  0.10131268  0.41520720     0.37720
C983        C  0.54880039  0.07970274  0.45760342     0.36140
C984        C  0.93738893  0.08762611  0.40367471     0.36150
N985        N  0.57081223  0.08076022  0.46884772    -0.38670
N986        N  0.91447931  0.09083450  0.39303367    -0.38680
N987        N  0.57762872  0.10994805  0.40940513    -0.38120
N988        N  0.90676371  0.06353876  0.45260149    -0.38120
C989        C  0.98698725  0.06961142  0.54740254    -0.04790
C990        C  0.51310142  0.08750837  0.55318156    -0.01910
C991        C  0.51543722  0.09939888  0.57404982     0.03080
C992        C  0.99098530  0.09466993  0.58894939    -0.04790
C993        C  0.96239811  0.08190670  0.58205599    -0.01890
C994        C  0.96047698  0.06895532  0.56154585     0.03080
C995        C  0.53840994  0.09244466  0.53805997     0.37730
C996        C  0.93510489  0.08114986  0.59634599     0.37720
C997        C  0.93225250  0.05240781  0.55611496     0.36140
C998        C  0.54418833  0.11421543  0.58053000     0.36150
N999        N  0.90975811  0.03907126  0.55201438    -0.38670
N1000       N  0.56719272  0.12600165  0.58563201    -0.38680
N1001       N  0.91342035  0.08043342  0.60775255    -0.38120
N1002       N  0.55860620  0.09635734  0.52600208    -0.38120
O1003       O  0.96483828  0.53670773  0.52075091    -0.72390
O1004       O  0.97177034  0.96534571  0.47820931    -0.73380
O1005       O  0.97105695  0.96838797  0.52405155    -0.61990
O1006       O  0.96684018  0.53353293  0.47628073    -0.70410
O1007       O  0.52000898  0.53310472  0.47774297    -0.69960
O1008       O  0.52479697  0.96641156  0.52409165    -0.61210
O1009       O  0.52527665  0.96488602  0.47802816    -0.73720
O1010       O  0.51822220  0.53489053  0.52276639    -0.72500
Cu1011     Cu  0.96685263  0.50076497  0.49980219     1.04560
Cu1012     Cu  0.52395376  0.99958905  0.50067698     1.04330
C1013       C  0.99013447  0.54668232  0.52900706     0.93800
C1014       C  0.49920258  0.95578530  0.47004368     0.92940
C1015       C  0.99856967  0.95856497  0.53230196     0.85090
C1016       C  0.49293057  0.54377799  0.46938808     0.91360
C1017       C  0.99645276  0.49704405  0.74888859    -0.01940
C1018       C  0.99924388  0.49938080  0.24961768    -0.01940
N1019       N  0.50727182  0.87722890  0.35550652    -0.26740
N1020       N  0.52193178  0.90345676  0.35148740    -0.34600
C1021       C  0.52712504  0.91852792  0.36990529     0.01600
C1022       C  0.51568063  0.90039447  0.38625976     0.07620
C1023       C  0.50305857  0.87448367  0.37651416    -0.05470
H1024       H  0.53641281  0.94199193  0.37121447     0.08290
H1025       H  0.48985614  0.85629766  0.38397568     0.09490
Cu1026     Cu  0.52850036  0.91853685  0.32047507     0.44170
Cu1027     Cu  0.49154224  0.84899003  0.33151587     0.41990
Cu1028     Cu  0.50110945  0.86715320  0.27622608     0.43880
N1029       N  0.01969438  0.93390333  0.28940166    -0.34130
N1030       N  0.00731941  0.91685283  0.27417073    -0.28380
C1031       C  0.99863638  0.93702283  0.25787968    -0.04480
C1032       C  0.00549108  0.96840656  0.26308440     0.07730
C1033       C  0.02014838  0.96481632  0.28288215     0.01530
H1034       H  0.98749487  0.92949906  0.24340591     0.09180
H1035       H  0.02953742  0.98356895  0.29234578     0.08260
N1036       N  0.49416687  0.82053366  0.28724901    -0.35580
N1037       N  0.48834301  0.81594724  0.30753076    -0.27760
C1038       C  0.48770111  0.78428447  0.31133452    -0.03000
C1039       C  0.49398678  0.76734059  0.29279337     0.05610
C1040       C  0.49770585  0.79110453  0.27758165     0.03710
H1041       H  0.48585338  0.77417054  0.32704550     0.08810
H1042       H  0.50522937  0.78715299  0.26132239     0.07650
O1043       O  0.53099890  0.52089907  0.02359460    -0.72390
O1044       O  0.96427917  0.53112327  0.97707826    -0.73380
O1045       O  0.96317183  0.53057546  0.02239074    -0.61990
O1046       O  0.53169561  0.52184162  0.97779589    -0.70410
O1047       O  0.52965999  0.96842954  0.97737246    -0.69960
O1048       O  0.96136788  0.97724397  0.02240190    -0.61210
O1049       O  0.96222506  0.97773224  0.97690095    -0.73720
O1050       O  0.52876395  0.96746538  0.02330295    -0.72500
Cu1051     Cu  0.99762762  0.52793302  0.00023978     1.04560
Cu1052     Cu  0.99545150  0.97085420  0.00000433     1.04330
C1053       C  0.53866115  0.99285614  0.03164912     0.93800
C1054       C  0.95427460  0.00577868  0.96883944     0.92940
C1055       C  0.95280992  0.00521839  0.03030988     0.85090
C1056       C  0.53948815  0.99412684  0.96935283     0.91360
N1057       N  0.87529595  0.50117436  0.14461556    -0.26740
N1058       N  0.90491874  0.48759431  0.14823884    -0.34600
C1059       C  0.92091054  0.48441697  0.12980277     0.01600
C1060       C  0.89993363  0.49615064  0.11383254     0.07620
C1061       C  0.87119783  0.50666044  0.12373899    -0.05470
H1062       H  0.94629204  0.47581366  0.12824314     0.08290
H1063       H  0.84959665  0.51885990  0.11650401     0.09490
Cu1064     Cu  0.92158066  0.47902462  0.17877185     0.44170
Cu1065     Cu  0.84419032  0.51270352  0.16921978     0.41990
Cu1066     Cu  0.86646035  0.49834117  0.22456142     0.43880
N1067       N  0.93627004  0.48541701  0.20961817    -0.34130
N1068       N  0.91747137  0.49418695  0.22591757    -0.28380
C1069       C  0.93669864  0.50044504  0.24242431    -0.04480
C1070       C  0.96902346  0.49606849  0.23606679     0.07730
C1071       C  0.96743652  0.48539249  0.21534805     0.01530
H1072       H  0.92786614  0.50810593  0.25790508     0.09180
H1073       H  0.98741561  0.47805805  0.20492495     0.08260
N1074       N  0.81826312  0.50345173  0.21353944    -0.35580
N1075       N  0.81181337  0.51081163  0.19347511    -0.27760
C1076       C  0.78029451  0.50991348  0.18965981    -0.03000
C1077       C  0.76544751  0.50111500  0.20793018     0.05610
C1078       C  0.79015661  0.49745487  0.22304302     0.03710
H1079       H  0.76950044  0.51289452  0.17405313     0.08810
H1080       H  0.78833077  0.48862556  0.23909561     0.07650
N1081       N  0.50852538  0.61903140  0.35484241    -0.26740
N1082       N  0.49476206  0.59218579  0.35117514    -0.34600
C1083       C  0.48933019  0.57770230  0.36964915     0.01600
C1084       C  0.49969781  0.59678651  0.38583789     0.07620
C1085       C  0.51182941  0.62288009  0.37587316    -0.05470
H1086       H  0.47804609  0.55532659  0.37120873     0.08290
H1087       H  0.52121453  0.64359914  0.38329926     0.09490
Cu1088     Cu  0.48337681  0.57861204  0.32095705     0.44170
Cu1089     Cu  0.51818643  0.64908211  0.33018292     0.41990
Cu1090     Cu  0.49619299  0.63218287  0.27525525     0.43880
N1091       N  0.98430491  0.56425703  0.28982258    -0.34130
N1092       N  0.99094382  0.58217780  0.27333655    -0.28380
C1093       C  0.99578428  0.56235440  0.25646413    -0.04480
C1094       C  0.99274507  0.53039211  0.26278616     0.07730
C1095       C  0.98422194  0.53314913  0.28390779     0.01530
H1096       H  0.00259435  0.57036970  0.24094692     0.09180
H1097       H  0.97928297  0.51390786  0.29464877     0.08260
N1098       N  0.50361419  0.67872188  0.28649719    -0.35580
N1099       N  0.51346581  0.68286308  0.30618134    -0.27760
C1100       C  0.51361892  0.71451028  0.31015053    -0.03000
C1101       C  0.50303103  0.73190010  0.29240712     0.05610
C1102       C  0.49709707  0.70847286  0.27743121     0.03710
H1103       H  0.51872305  0.72416749  0.32559236     0.08810
H1104       H  0.48650161  0.71274583  0.26185287     0.07650
N1105       N  0.61940824  0.99723459  0.14576557    -0.26740
N1106       N  0.59189980  0.01498812  0.14969850    -0.34600
C1107       C  0.57490035  0.01943364  0.13157888     0.01600
C1108       C  0.59274057  0.00373229  0.11542674     0.07620
C1109       C  0.62094824  0.99003215  0.12499867    -0.05470
H1110       H  0.55050150  0.03134640  0.13046873     0.08290
H1111       H  0.64020973  0.97440064  0.11768124     0.09490
Cu1112     Cu  0.57734331  0.02576528  0.18040259     0.44170
Cu1113     Cu  0.65128392  0.98258600  0.16985950     0.41990
Cu1114     Cu  0.63185651  0.99817775  0.22508868     0.43880
N1115       N  0.56245342  0.01669534  0.21088332    -0.34130
N1116       N  0.58115297  0.00446449  0.22655834    -0.28380
C1117       C  0.56198040  0.99620880  0.24247237    -0.04480
C1118       C  0.52963186  0.00289967  0.23637879     0.07730
C1119       C  0.53130331  0.01714924  0.21655966     0.01530
H1120       H  0.57095149  0.98574455  0.25733998     0.09180
H1121       H  0.51130222  0.02689774  0.20665841     0.08260
N1122       N  0.67942115  0.99079715  0.21387781    -0.35580
N1123       N  0.68503327  0.98280758  0.19387194    -0.27760
C1124       C  0.71662144  0.98250735  0.18994266    -0.03000
C1125       C  0.73225390  0.99125003  0.20806773     0.05610
C1126       C  0.70797180  0.99610077  0.22318978     0.03710
H1127       H  0.72694458  0.97915146  0.17430136     0.08810
H1128       H  0.71038542  0.00553878  0.23903861     0.07650
N1129       N  0.87570767  0.00106346  0.85430406    -0.26740
N1130       N  0.90491224  0.98677152  0.85047189    -0.34600
C1131       C  0.92174050  0.98382163  0.86872245     0.01600
C1132       C  0.90175301  0.99652318  0.88480803     0.07620
C1133       C  0.87268808  0.00722376  0.87513628    -0.05470
H1134       H  0.94703205  0.97463749  0.87005829     0.08290
H1135       H  0.85160404  0.01999819  0.88247391     0.09490
Cu1136     Cu  0.91985483  0.97713995  0.81977189     0.44170
Cu1137     Cu  0.84380930  0.01266658  0.82991368     0.41990
Cu1138     Cu  0.86367439  0.99876991  0.77429574     0.43880
N1139       N  0.93368564  0.98375286  0.78881614    -0.34130
N1140       N  0.91469664  0.99387630  0.77273215    -0.28380
C1141       C  0.93377129  0.00045941  0.75630520    -0.04480
C1142       C  0.96622015  0.99485054  0.76250693     0.07730
C1143       C  0.96475656  0.98294854  0.78296596     0.01530
H1144       H  0.92477540  0.00894726  0.74095193     0.09180
H1145       H  0.98482556  0.97432359  0.79315148     0.08260
N1146       N  0.81591264  0.00403694  0.78584485    -0.35580
N1147       N  0.81045648  0.01119944  0.80599259    -0.27760
C1148       C  0.77906927  0.01079958  0.81017963    -0.03000
C1149       C  0.76320757  0.00250959  0.79208952     0.05610
C1150       C  0.78722645  0.99865272  0.77666829     0.03710
H1151       H  0.76903166  0.01399787  0.82590533     0.08810
H1152       H  0.78449229  0.99029596  0.76058237     0.07650
N1153       N  0.99214886  0.87535986  0.64607276    -0.26740
N1154       N  0.01361605  0.89608946  0.65019212    -0.34240
C1155       C  0.02141211  0.91015387  0.63200667     0.01600
C1156       C  0.00345512  0.89830298  0.61560470     0.07620
C1157       C  0.98538954  0.87590755  0.62514782    -0.05470
H1158       H  0.03710741  0.92949377  0.63103034     0.08290
H1159       H  0.96726675  0.86254282  0.61771577     0.09490
Cu1160     Cu  0.02490482  0.90992937  0.68085548     0.44170
Cu1161     Cu  0.97342261  0.84865733  0.66990966     0.41990
Cu1162     Cu  0.99307510  0.86472640  0.72443390     0.43880
N1163       N  0.01648537  0.92874770  0.71113708    -0.34130
N1164       N  0.00211369  0.91343781  0.72626387    -0.28380
C1165       C  0.99332191  0.93475442  0.74177694    -0.04480
C1166       C  0.00232129  0.96526451  0.73623625     0.07730
C1167       C  0.01820992  0.95982727  0.71701499     0.01530
H1168       H  0.98060758  0.92857472  0.75590132     0.09180
H1169       H  0.02911283  0.97748350  0.70745373     0.08260
N1170       N  0.98322814  0.81899625  0.71372588    -0.35580
N1171       N  0.97360732  0.81485980  0.69400796    -0.27760
C1172       C  0.97290979  0.78313695  0.69027474    -0.03000
C1173       C  0.98301568  0.76591378  0.70824904     0.05610
C1174       C  0.98919797  0.78944012  0.72302160     0.03710
H1175       H  0.96902638  0.77316539  0.67473569     0.08810
H1176       H  0.00045160  0.78529390  0.73842143     0.07650
N1177       N  0.00505513  0.62120708  0.64319960    -0.26740
N1178       N  0.99499151  0.59241476  0.64659560    -0.34600
C1179       C  0.98982725  0.57831062  0.62796444     0.01600
C1180       C  0.99619529  0.59969499  0.61194705     0.07620
C1181       C  0.00597716  0.62672200  0.62220393    -0.05470
H1182       H  0.98102997  0.55468915  0.62621512     0.08290
H1183       H  0.01192556  0.64915848  0.61505450     0.09490
Cu1184     Cu  0.98615969  0.57613075  0.67660412     0.44170
Cu1185     Cu  0.01295437  0.65113363  0.66823367     0.41990
Cu1186     Cu  0.99249135  0.62983203  0.72281856     0.43880
N1187       N  0.98499627  0.56116537  0.70763159    -0.34130
N1188       N  0.98881955  0.57942447  0.72446285    -0.28380
C1189       C  0.99186255  0.55978362  0.74157716    -0.04480
C1190       C  0.99061054  0.52760209  0.73511797     0.07730
C1191       C  0.98507851  0.52996790  0.71351419     0.01530
H1192       H  0.99628641  0.56806359  0.75748063     0.09180
H1193       H  0.98198966  0.51055454  0.70250066     0.08260
N1194       N  0.99801362  0.67741140  0.71252171    -0.35580
N1195       N  0.00729057  0.68328420  0.69298178    -0.27760
C1196       C  0.00573987  0.71530053  0.68974616    -0.03000
C1197       C  0.99464148  0.73105619  0.70785268     0.05610
C1198       C  0.99016645  0.70635550  0.72223539     0.03710
H1199       H  0.00973186  0.72627250  0.67453023     0.08810
H1200       H  0.97943768  0.70915371  0.73779681     0.07650
N1201       N  0.61661155  0.99964399  0.85459471    -0.26740
N1202       N  0.58755311  0.01408930  0.85026441    -0.34600
C1203       C  0.57047139  0.01757832  0.86829456     0.01600
C1204       C  0.59006022  0.00497351  0.88479015     0.07620
C1205       C  0.61921439  0.99386417  0.87553584    -0.05470
H1206       H  0.54520556  0.02695255  0.86920294     0.08290
H1207       H  0.64005658  0.98098568  0.88324498     0.09490
Cu1208     Cu  0.57287651  0.02269102  0.81922697     0.44170
Cu1209     Cu  0.64890936  0.98706634  0.83065884     0.41990
Cu1210     Cu  0.62897810  0.99779758  0.77461728     0.43880
N1211       N  0.55914586  0.01417858  0.78835188    -0.34130
N1212       N  0.57816230  0.00294126  0.77270035    -0.28380
C1213       C  0.55922939  0.99507284  0.75641345    -0.04480
C1214       C  0.52677101  0.50097955  0.76230634     0.07730
C1215       C  0.52812460  0.51436418  0.78237476     0.01530
H1216       H  0.56841385  0.98535417  0.74147865     0.09180
H1217       H  0.50801046  0.52350543  0.79221811     0.08260
N1218       N  0.67663174  0.99262546  0.78632777    -0.35580
N1219       N  0.68227312  0.98673388  0.80666893    -0.27760
C1220       C  0.71380291  0.98700543  0.81071419    -0.03000
C1221       C  0.72946871  0.99391696  0.79230388     0.05610
C1222       C  0.70521186  0.99706851  0.77688968     0.03710
H1223       H  0.72410856  0.98475442  0.82648310     0.08810
H1224       H  0.70772223  0.00442108  0.76057001     0.07650
C1225       C  0.93626999  0.00818522  0.94840710    -0.04790
C1226       C  0.91065042  0.98873003  0.94454715    -0.01910
C1227       C  0.89826814  0.98594652  0.92383532     0.03080
C1228       C  0.91151639  0.00248049  0.90691064    -0.04790
C1229       C  0.93542130  0.52359735  0.91092430    -0.01890
C1230       C  0.94793918  0.52634777  0.93153212     0.03080
C1231       C  0.89727151  0.97122205  0.96181404     0.37730
C1232       C  0.94729936  0.54253635  0.89375163     0.37720
C1233       C  0.97452618  0.54620236  0.93484319     0.36140
C1234       C  0.87283765  0.96500692  0.91979220     0.36150
N1235       N  0.99577430  0.56200858  0.93732554    -0.38670
N1236       N  0.85253241  0.94830663  0.91657946    -0.38680
N1237       N  0.95661684  0.55768510  0.88004530    -0.38120
N1238       N  0.88654946  0.95719853  0.97555036    -0.38120
C1239       C  0.93359525  0.50752645  0.05027027    -0.04790
C1240       C  0.94183300  0.52901172  0.06654828    -0.01910
C1241       C  0.92921508  0.52632808  0.08705786     0.03080
C1242       C  0.90873920  0.50205384  0.09162892    -0.04790
C1243       C  0.89849328  0.98238298  0.07524037    -0.01890
C1244       C  0.91080370  0.98510066  0.05458381     0.03080
C1245       C  0.96530257  0.55227241  0.06296291     0.37730
C1246       C  0.87643699  0.95819861  0.07991557     0.37720
C1247       C  0.90056672  0.96404775  0.03800903     0.36140
C1248       C  0.93785660  0.54817790  0.10370125     0.36150
N1249       N  0.89242242  0.94705212  0.02488960    -0.38670
N1250       N  0.94459485  0.56560010  0.11699090    -0.38680
N1251       N  0.85885538  0.93889942  0.08367052    -0.38120
N1252       N  0.98408139  0.57079643  0.06025828    -0.38120
C1253       C  0.55647165  0.99253555  0.94861020    -0.04790
C1254       C  0.58250408  0.51129361  0.94481764    -0.01910
C1255       C  0.59446905  0.51426732  0.92405696     0.03080
C1256       C  0.57992416  0.99931795  0.90688394    -0.04790
C1257       C  0.55489566  0.97936328  0.91077569    -0.01890
C1258       C  0.54321037  0.97592267  0.93148847     0.03080
C1259       C  0.59665472  0.52817804  0.96212423     0.37730
C1260       C  0.54099946  0.96235242  0.89336656     0.37720
C1261       C  0.51594375  0.95697610  0.93469941     0.36140
C1262       C  0.62084649  0.53405720  0.92018223     0.36150
N1263       N  0.99411232  0.94176330  0.93706281    -0.38670
N1264       N  0.64193542  0.54980840  0.91711003    -0.38680
N1265       N  0.52996677  0.94882558  0.87946803    -0.38120
N1266       N  0.60791576  0.54188824  0.97584281    -0.38120
C1267       C  0.55577144  0.99041012  0.05236510    -0.04790
C1268       C  0.58584899  0.50300640  0.05519503    -0.01910
C1269       C  0.59875957  0.50619872  0.07577017     0.03080
C1270       C  0.58116870  0.99752237  0.09363203    -0.04790
C1271       C  0.55208640  0.98290916  0.09071121    -0.01890
C1272       C  0.53972577  0.97889357  0.07017339     0.03080
C1273       C  0.60379503  0.51205945  0.03684083     0.37730
C1274       C  0.53487116  0.97166640  0.10886014     0.37720
C1275       C  0.51002271  0.96341686  0.06760487     0.36140
C1276       C  0.62965169  0.51936030  0.07850219     0.36150
N1277       N  0.98655116  0.95052842  0.06600059    -0.38670
N1278       N  0.65440175  0.52971183  0.08063099    -0.38680
N1279       N  0.52111666  0.96280570  0.12333183    -0.38120
N1280       N  0.61833577  0.51896833  0.02219980    -0.38120
C1281       C  0.50948179  0.91145352  0.40832711    -0.04790
C1282       C  0.52944989  0.89887319  0.42517245    -0.01910
C1283       C  0.52516640  0.91200446  0.44577567     0.03080
C1284       C  0.50039634  0.93731950  0.44969885    -0.04790
C1285       C  0.97861982  0.94778987  0.43304573    -0.01890
C1286       C  0.98339960  0.93511968  0.41247363     0.03080
C1287       C  0.55459252  0.87267058  0.42121756     0.37730
C1288       C  0.95178850  0.97243658  0.43659321     0.37720
C1289       C  0.96153376  0.94660017  0.39540288     0.36140
C1290       C  0.54585842  0.89909175  0.46300016     0.36150
N1291       N  0.94412707  0.95568506  0.38178962    -0.38670
N1292       N  0.56224650  0.88872097  0.47679816    -0.38680
N1293       N  0.93000134  0.99172932  0.43920123    -0.38120
N1294       N  0.57451334  0.85160411  0.41806479    -0.38120
C1295       C  0.99985164  0.94164546  0.55310970    -0.04790
C1296       C  0.00096566  0.96046879  0.57163542    -0.01910
C1297       C  0.99711796  0.94656472  0.59156816     0.03080
C1298       C  0.99954318  0.91247172  0.59386007    -0.04790
C1299       C  0.50077077  0.89283151  0.57536758    -0.01890
C1300       C  0.49951111  0.90759866  0.55498193     0.03080
C1301       C  0.01127239  0.99280574  0.57092636     0.37730
C1302       C  0.50432529  0.85771791  0.57723234     0.37720
C1303       C  0.49999643  0.88786903  0.53601370     0.36140
C1304       C  0.98954600  0.96779716  0.60957366     0.36150
N1305       N  0.50058470  0.87224036  0.52079691    -0.38670
N1306       N  0.98301766  0.98468866  0.62384804    -0.38680
N1307       N  0.50736561  0.82964847  0.57865859    -0.38120
N1308       N  0.02181335  0.51752715  0.57180660    -0.38120
C1309       C  0.49232777  0.56608517  0.45054339    -0.04790
C1310       C  0.96396456  0.57204887  0.43788490    -0.01910
C1311       C  0.96619907  0.58347457  0.41696764     0.03080
C1312       C  0.49631428  0.59077862  0.40886541    -0.04790
C1313       C  0.52318141  0.59066605  0.42266976    -0.01890
C1314       C  0.52116651  0.57864196  0.44351203     0.03080
C1315       C  0.93224025  0.56706594  0.44614216     0.37730
C1316       C  0.55346068  0.60133183  0.41521934     0.37720
C1317       C  0.54881513  0.57971366  0.45761400     0.36140
C1318       C  0.93734880  0.58766390  0.40370853     0.36150
N1319       N  0.57083098  0.58076712  0.46885538    -0.38670
N1320       N  0.91442796  0.59088964  0.39307843    -0.38680
N1321       N  0.57763190  0.60996464  0.40941498    -0.38120
N1322       N  0.90676412  0.56350313  0.45262755    -0.38120
C1323       C  0.98697392  0.56958948  0.54738605    -0.04790
C1324       C  0.51311555  0.58754776  0.55319257    -0.01910
C1325       C  0.51546671  0.59943511  0.57406053     0.03080
C1326       C  0.99099478  0.59466535  0.58892498    -0.04790
C1327       C  0.96240321  0.58190038  0.58204198    -0.01890
C1328       C  0.96046908  0.56894344  0.56153415     0.03080
C1329       C  0.53839845  0.59250945  0.53805742     0.37730
C1330       C  0.93512208  0.58114425  0.59634184     0.37720
C1331       C  0.93224076  0.55239714  0.55611170     0.36140
C1332       C  0.54421049  0.61427629  0.58052610     0.36150
N1333       N  0.90974292  0.53906166  0.55201825    -0.38670
N1334       N  0.56720910  0.62608286  0.58561564    -0.38680
N1335       N  0.91344832  0.58042952  0.60775739    -0.38120
N1336       N  0.55857374  0.59644224  0.52598830    -0.38120
loop_ 
_geom_bond_atom_site_label_1 
_geom_bond_atom_site_label_2 
_geom_bond_distance 
_geom_bond_site_symmetry_2 
_ccdc_geom_bond_type 
O1           Cu9   1.986       .  S
O1           C11   1.273       .  A
O2         Cu343   2.000       .  S
O2          C680   1.276       .  A
O3         Cu343   2.028       .  S
O3           C13   1.280       .  A
O4           Cu9   2.008       .  S
O4          C682   1.278       .  A
O5         Cu344   1.997   1_545  S
O5           C14   1.276   1_455  A
O6          Cu10   2.012       .  S
O6          C681   1.276   1_455  A
O7          Cu10   2.023       .  S
O7           C12   1.280   1_455  A
O8         Cu344   2.016   1_545  S
O8          C679   1.280   1_455  A
Cu9         O336   2.000   1_545  S
Cu9         O337   2.028   1_545  S
Cu9       Cu1012   2.363   1_545  S
Cu10        O339   1.997       .  S
Cu10        O342   2.016       .  S
Cu10      Cu1011   2.363   1_455  S
C11         O676   1.280       .  A
C11         C321   1.497       .  S
C12         O670   1.276       .  A
C12         C282   1.493   1_655  S
C13         O674   1.276       .  A
C13         C293   1.485       .  S
C14         O672   1.278       .  A
C14         C307   1.502       .  S
C15         C188   1.530   1_565  S
C15         C474   1.534       .  S
C15         C498   1.538       .  S
C15         C880   1.532   1_565  S
C16          C68   1.531       .  S
C16          C92   1.531   1_565  S
C16         C364   1.536       .  S
C16        C1118   1.531   1_565  S
N17          N18   1.319       .  A
N17          C21   1.345       .  A
N17         Cu25   2.056   1_455  S
N18          C19   1.346       .  A
N18         Cu24   2.081       .  S
C19          C20   1.388       .  A
C19          H22   1.081       .  S
C20         C279   1.483       .  S
C20          C21   1.381       .  A
C21          H23   1.081   1_455  S
Cu24        N695   2.081       .  S
Cu25         N35   2.053       .  S
Cu26         N34   2.094   1_455  S
Cu26        N696   2.097       .  S
N27          N28   1.324       .  A
N27          C31   1.343       .  A
N27        Cu692   2.081       .  S
N28          C29   1.348       .  A
N28        Cu694   2.097       .  S
C29          C30   1.394       .  A
C29          H32   1.082       .  S
C30         C350   1.535       .  S
C30          C31   1.388       .  A
C31          H33   1.080       .  S
N34          N35   1.321       .  A
N34          C38   1.357       .  A
N35          C36   1.332       .  A
C36          C37   1.378       .  A
C36          H39   1.082       .  S
C37          C99   1.475   1_655  S
C37          C38   1.392       .  A
C38          H40   1.082   1_655  S
O41        Cu717   2.013   1_455  S
O41         C385   1.278   1_545  A
O42         Cu49   2.003   1_556  S
O42         C386   1.277       .  A
O43         Cu49   1.999       .  S
O43         C387   1.277       .  A
O44        Cu717   2.003   1_456  S
O44         C388   1.277   1_545  A
O45        Cu718   2.011   1_456  S
O45          C54   1.279       .  A
O46         Cu50   2.003       .  S
O46          C53   1.278       .  A
O47         Cu50   2.002   1_556  S
O47          C52   1.277       .  A
O48        Cu718   2.007   1_455  S
O48          C51   1.277       .  A
Cu49        O709   2.013       .  S
Cu49        O712   2.003   1_554  S
Cu49       Cu384   2.370   1_544  S
Cu50        O713   2.010   1_554  S
Cu50        O716   2.007       .  S
Cu50       Cu383   2.370       .  S
C51         O375   1.278       .  A
C51         C265   1.483       .  S
C52         O376   1.277       .  A
C52         C223   1.485       .  S
C53         O377   1.277       .  A
C53         C571   1.491       .  S
C54         O378   1.277       .  A
C54         C251   1.489       .  S
N55          N56   1.318   1_545  A
N55          C59   1.344       .  A
N55         Cu63   2.051       .  S
N56          C57   1.343       .  A
N56         Cu62   2.063       .  S
C57          C58   1.384       .  A
C57          H60   1.082       .  S
C58         C240   1.476   1_565  S
C58          C59   1.380   1_565  A
C59          H61   1.082       .  S
Cu62         N65   2.063       .  S
Cu63         N73   2.048       .  S
Cu64         N66   2.106       .  S
Cu64         N72   2.103   1_565  S
N65          N66   1.323       .  A
N65          C69   1.340       .  A
N66          C67   1.350   1_565  A
C67          C68   1.396   1_545  A
C67          H70   1.082       .  S
C68          C69   1.384       .  A
C69          H71   1.081       .  S
N72          N73   1.322       .  A
N72          C76   1.358   1_545  A
N73          C74   1.332       .  A
C74          C75   1.375       .  A
C74          H77   1.082       .  S
C75         C457   1.475   1_545  S
C75          C76   1.393   1_545  A
C76          H78   1.082       .  S
N79          N80   1.317   1_455  A
N79          C83   1.345       .  A
N79         Cu87   2.055       .  S
N80          C81   1.340       .  A
N80         Cu86   2.055       .  S
C81          C82   1.384       .  A
C81          H84   1.081       .  S
C82         C310   1.484       .  S
C82          C83   1.385   1_655  A
C83          H85   1.081       .  S
Cu86        N757   2.055       .  S
Cu87         N97   2.054       .  S
Cu88         N96   2.101   1_655  S
Cu88        N758   2.103       .  S
N89          N90   1.322       .  A
N89          C93   1.339       .  A
N89        Cu754   2.054       .  S
N90          C91   1.348       .  A
N90        Cu756   2.103       .  S
C91          C92   1.397       .  A
C91          H94   1.081       .  S
C92          C93   1.383       .  A
C93          H95   1.080       .  S
N96          N97   1.323       .  A
N96         C100   1.357   1_455  A
N97          C98   1.332       .  A
C98          C99   1.376       .  A
C98         H101   1.082       .  S
C99         C100   1.392   1_455  A
C100        H102   1.082       .  S
N103        N104   1.318       .  A
N103        C107   1.345       .  A
N103       Cu111   2.060       .  S
N104        C105   1.343       .  A
N104       Cu110   2.069       .  S
C105        C106   1.387       .  A
C105        H108   1.082       .  S
C106        C268   1.486       .  S
C106        C107   1.383       .  A
C107        H109   1.082       .  S
Cu110       N113   2.069       .  S
Cu111       N121   2.058       .  S
Cu112       N114   2.095       .  S
Cu112       N120   2.093       .  S
N113        N114   1.323       .  A
N113        C117   1.340       .  A
N114        C115   1.348       .  A
C115        C116   1.394       .  A
C115        H118   1.082       .  S
C116       C1018   1.531   1_455  S
C116        C117   1.387       .  A
C117        H119   1.081       .  S
N120        N121   1.322       .  A
N120        C124   1.356       .  A
N121        C122   1.333       .  A
C122        C123   1.378       .  A
C122        H125   1.082       .  S
C123        C409   1.475       .  S
C123        C124   1.391       .  A
C124        H126   1.082       .  S
N127        N128   1.317       .  A
N127        C131   1.344       .  A
N127       Cu135   2.050       .  S
N128        C129   1.343       .  A
N128       Cu134   2.065       .  S
C129        C130   1.385       .  A
C129        H132   1.082       .  S
C130        C226   1.479       .  S
C130        C131   1.381       .  A
C131        H133   1.082       .  S
Cu134       N137   2.065       .  S
Cu135       N145   2.048       .  S
Cu136       N138   2.108       .  S
Cu136       N144   2.105       .  S
N137        N138   1.323       .  A
N137        C141   1.339       .  A
N138        C139   1.351       .  A
C139        C140   1.396       .  A
C139        H142   1.082       .  S
C140        C349   1.534       .  S
C140        C141   1.385       .  A
C141        H143   1.081       .  S
N144        N145   1.322       .  A
N144        C148   1.358       .  A
N145        C146   1.331       .  A
C146        C147   1.376       .  A
C146        H149   1.082       .  S
C147        C219   1.477       .  S
C147        C148   1.394       .  A
C148        H150   1.082       .  S
N151        N152   1.320       .  A
N151        C155   1.349       .  A
N151       Cu159   2.064       .  S
N152        C153   1.341       .  A
N152       Cu158   2.084       .  S
C153        C154   1.390       .  A
C153        H156   1.081       .  S
C154        C296   1.494       .  S
C154        C155   1.386       .  A
C155        H157   1.081       .  S
Cu158       N161   2.083       .  S
Cu159       N169   2.063       .  S
Cu160       N162   2.086       .  S
Cu160       N168   2.085       .  S
N161        N162   1.321       .  A
N161        C165   1.346       .  A
N162        C163   1.346       .  A
C163        C164   1.394       .  A
C163        H166   1.081       .  S
C164        C349   1.538       .  S
C164        C165   1.392       .  A
C165        H167   1.080       .  S
N168        N169   1.322       .  A
N168        C172   1.354       .  A
N169        C170   1.335       .  A
C170        C171   1.380       .  A
C170        H173   1.082       .  S
C171        C195   1.473       .  S
C171        C172   1.389       .  A
C172        H174   1.082       .  S
N175        N176   1.316       .  A
N175        C179   1.346       .  A
N175       Cu183   2.053       .  S
N176        C177   1.339       .  A
N176       Cu182   2.056       .  S
C177        C178   1.385       .  A
C177        H180   1.081       .  S
C178        C324   1.486       .  S
C178        C179   1.385       .  A
C179        H181   1.081       .  S
Cu182       N185   2.056       .  S
Cu183       N193   2.052       .  S
Cu184       N186   2.105       .  S
Cu184       N192   2.104       .  S
N185        N186   1.322       .  A
N185        C189   1.340       .  A
N186        C187   1.348       .  A
C187        C188   1.397       .  A
C187        H190   1.082       .  S
C188        C189   1.384       .  A
C189        H191   1.079       .  S
N192        N193   1.323       .  A
N192        C196   1.356       .  A
N193        C194   1.333       .  A
C194        C195   1.375       .  A
C194        H197   1.082       .  S
C195        C196   1.392       .  A
C196        H198   1.082       .  S
N199        N200   1.318       .  A
N199        C203   1.345       .  A
N199       Cu207   2.058       .  S
N200        C201   1.344       .  A
N200       Cu206   2.069       .  S
C201        C202   1.386       .  A
C201        H204   1.082       .  S
C202        C254   1.484       .  S
C202        C203   1.383       .  A
C203        H205   1.082       .  S
Cu206       N209   2.068       .  S
Cu207       N217   2.056       .  S
Cu208       N210   2.099       .  S
Cu208       N216   2.097       .  S
N209        N210   1.323       .  A
N209        C547   1.339       .  A
N210        C211   1.350       .  A
C211        C546   1.395       .  A
C211        H214   1.082       .  S
C212        C683   1.532   1_445  S
C212        C213   1.386       .  A
C212        C545   1.395   1_545  A
C213        N543   1.339       .  A
C213        H215   1.081       .  S
N216        N217   1.322       .  A
N216        C220   1.357       .  A
N217        C218   1.332       .  A
C218        C219   1.378       .  A
C218        H221   1.082       .  S
C219        C220   1.393       .  A
C220        H222   1.082       .  S
C223        C224   1.414       .  A
C223        C562   1.418       .  A
C224        C225   1.411       .  A
C224        C229   1.450       .  S
C225        C226   1.410       .  A
C225        C232   1.450       .  S
C226        C561   1.409       .  A
C227        C228   1.407       .  A
C227        C560   1.409       .  A
C227        C230   1.452       .  S
C228        C557   1.418       .  A
C228        C231   1.452       .  S
C229        N236   1.157       .  T
C230        N235   1.157       .  T
C231        N233   1.157       .  T
C232        N234   1.157       .  T
C237        C387   1.491       .  S
C237        C238   1.421       .  A
C237        C576   1.417   1_545  A
C238        C239   1.407       .  A
C238        C243   1.452       .  S
C239        C240   1.407       .  A
C239        C246   1.453       .  S
C240        C575   1.408   1_545  A
C241        C242   1.411       .  A
C241        C574   1.408       .  A
C241        C244   1.450       .  S
C242        C571   1.417       .  A
C242        C245   1.450       .  S
C243        N250   1.157       .  T
C244        N249   1.157       .  T
C245        N247   1.157       .  T
C246        N248   1.157       .  T
C251        C256   1.419       .  A
C251        C586   1.414       .  A
C252        C253   1.413       .  A
C252        C585   1.414   1_545  A
C252        C257   1.450       .  S
C253        C588   1.411   1_545  A
C253        C260   1.450       .  S
C254        C255   1.410       .  A
C254        C587   1.411       .  A
C255        C256   1.409       .  A
C255        C258   1.453       .  S
C256        C259   1.452       .  S
C257        N264   1.157       .  T
C258        N263   1.157       .  T
C259        N929   1.157   1_455  T
C260        N262   1.157       .  T
N261        C927   1.157       .  T
C265        C270   1.415       .  A
C265        C600   1.410       .  A
C266        C267   1.414       .  A
C266        C599   1.410   1_545  A
C266        C271   1.449       .  S
C267        C602   1.414   1_545  A
C267        C274   1.450       .  S
C268        C269   1.412       .  A
C268        C601   1.414       .  A
C269        C270   1.408       .  A
C269        C272   1.453       .  S
C270        C273   1.451       .  S
C271        N278   1.157       .  T
C272        N277   1.157       .  T
C273        N943   1.157   1_455  T
C274        N276   1.157       .  T
N275        C941   1.157       .  T
C279        C280   1.411       .  A
C279        C952   1.408   1_455  A
C280        C281   1.415       .  A
C280        C285   1.450       .  S
C281        C282   1.415       .  A
C281        C288   1.450       .  S
C282        C951   1.421   1_455  A
C283        C284   1.409       .  A
C283        C950   1.421       .  A
C283        C286   1.450       .  S
C284        C947   1.408       .  A
C284        C287   1.453       .  S
C285        N292   1.157       .  T
C286        N291   1.157       .  T
C287        N289   1.157       .  T
C288        N290   1.157       .  T
C293        C294   1.409       .  A
C293        C966   1.411       .  A
C294        C295   1.399       .  A
C294        C299   1.443       .  S
C295        C296   1.409       .  A
C295        C302   1.453       .  S
C296        C965   1.419       .  A
C297        C298   1.422   1_455  A
C297        C964   1.419   1_455  A
C297        C300   1.448       .  S
C298        C961   1.411       .  A
C298        C301   1.449       .  S
C299        N640   1.155       .  T
C300        N305   1.157       .  T
C301        N303   1.157   1_655  T
C302        N304   1.157       .  T
N306        C633   1.155   1_545  T
C307        C312   1.422   1_655  A
C307        C976   1.419       .  A
C308        C309   1.408       .  A
C308        C975   1.419       .  A
C308        C313   1.451       .  S
C309        C978   1.411       .  A
C309        C316   1.452       .  S
C310        C311   1.410   1_655  A
C310        C977   1.411       .  A
C311        C312   1.412       .  A
C311        C314   1.451       .  S
C312        C315   1.452       .  S
C313        N320   1.157       .  T
C314        N319   1.157       .  T
C315        N317   1.158       .  T
C316        N318   1.157       .  T
C321        C326   1.422       .  A
C321        C990   1.418       .  A
C322        C323   1.413       .  A
C322        C989   1.418   1_455  A
C322        C327   1.451       .  S
C323        C992   1.413   1_455  A
C323        C330   1.450       .  S
C324        C325   1.411       .  A
C324        C991   1.413       .  A
C325        C326   1.407       .  A
C325        C328   1.454       .  S
C326        C329   1.452       .  S
C327        N334   1.157       .  T
C328        N333   1.157       .  T
C329        N331   1.157       .  T
C330        N332   1.157       .  T
O335       Cu343   1.986       .  S
O335        C345   1.273       .  A
O336       C1014   1.276       .  A
O337        C347   1.280       .  A
O338       Cu343   2.008       .  S
O338       C1016   1.278       .  A
O339        C348   1.276   1_455  A
O340       Cu344   2.012       .  S
O340       C1015   1.276   1_455  A
O341       Cu344   2.024       .  S
O341        C346   1.280   1_455  A
O342       C1013   1.280   1_455  A
Cu343      Cu678   2.363       .  S
Cu344      Cu677   2.363   1_465  S
C345       O1010   1.280       .  A
C345        C655   1.497       .  S
C346       O1004   1.276       .  A
C346        C616   1.494   1_655  S
C347       O1008   1.276       .  A
C347        C627   1.485       .  S
C348       O1006   1.278       .  A
C348        C641   1.502       .  S
C349        C522   1.530       .  S
C349       C1214   1.532       .  S
C350        C402   1.531       .  S
C350        C426   1.531       .  S
C350        C784   1.531       .  S
N351        N352   1.319       .  A
N351        C355   1.345       .  A
N351       Cu359   2.056   1_455  S
N352        C353   1.346       .  A
N352       Cu358   2.081       .  S
C353        C354   1.388       .  A
C353        H356   1.081       .  S
C354        C613   1.483       .  S
C354        C355   1.381       .  A
C355        H357   1.081   1_455  S
Cu358      N1029   2.081       .  S
Cu359       N369   2.053       .  S
Cu360      N1030   2.097       .  S
Cu360       N368   2.094   1_455  S
N361        N362   1.324       .  A
N361        C365   1.343       .  A
N361      Cu1026   2.081       .  S
N362        C363   1.348       .  A
N362      Cu1028   2.097       .  S
C363        C364   1.394       .  A
C363        H366   1.082       .  S
C364        C365   1.388       .  A
C365        H367   1.080       .  S
N368        N369   1.321       .  A
N368        C372   1.357       .  A
N369        C370   1.332       .  A
C370        C371   1.378       .  A
C370        H373   1.082       .  S
C371        C433   1.475   1_655  S
C371        C372   1.392       .  A
C372        H374   1.082   1_655  S
O375      Cu1051   2.013   1_455  S
O376       Cu383   2.002   1_556  S
O377       Cu383   2.000       .  S
O378      Cu1051   2.003   1_456  S
O379      Cu1052   2.010   1_456  S
O379        C388   1.279       .  A
O380       Cu384   2.004   1_554  S
O380        C387   1.278   1_565  A
O381       Cu384   2.002       .  S
O381        C386   1.277   1_565  A
O382      Cu1052   2.007   1_455  S
O382        C385   1.277       .  A
Cu383      O1043   2.013       .  S
Cu383      O1046   2.003   1_554  S
Cu384      O1047   2.011       .  S
Cu384      O1050   2.007   1_556  S
C385        C599   1.483       .  S
C386        C557   1.485       .  S
C388        C585   1.489       .  S
N389        N390   1.318       .  A
N389        C393   1.344       .  A
N389       Cu397   2.050       .  S
N390        C391   1.343       .  A
N390       Cu396   2.063       .  S
C391        C392   1.384       .  A
C391        H394   1.082       .  S
C392        C574   1.476       .  S
C392        C393   1.380       .  A
C393        H395   1.082       .  S
Cu396       N399   2.063       .  S
Cu397       N407   2.048       .  S
Cu398       N400   2.106       .  S
Cu398       N406   2.103       .  S
N399        N400   1.323       .  A
N399        C403   1.340       .  A
N400        C401   1.350       .  A
C401        C402   1.396       .  A
C401        H404   1.082       .  S
C402        C403   1.384       .  A
C403        H405   1.081       .  S
N406        N407   1.322       .  A
N406        C410   1.358       .  A
N407        C408   1.332       .  A
C408        C409   1.375       .  A
C408        H411   1.082       .  S
C409        C410   1.393       .  A
C410        H412   1.082       .  S
N413        N414   1.317   1_455  A
N413        C417   1.345       .  A
N413       Cu421   2.055       .  S
N414        C415   1.340       .  A
N414       Cu420   2.055       .  S
C415        C416   1.384       .  A
C415        H418   1.081       .  S
C416        C644   1.484       .  S
C416        C417   1.385   1_655  A
C417        H419   1.081       .  S
Cu420      N1091   2.054       .  S
Cu421       N431   2.054       .  S
Cu422      N1092   2.103       .  S
Cu422       N430   2.101   1_655  S
N423        N424   1.322       .  A
N423        C427   1.339       .  A
N423      Cu1088   2.054       .  S
N424        C425   1.348       .  A
N424      Cu1090   2.103       .  S
C425        C426   1.397       .  A
C425        H428   1.081       .  S
C426        C427   1.383       .  A
C427        H429   1.080       .  S
N430        N431   1.323       .  A
N430        C434   1.357   1_455  A
N431        C432   1.332       .  A
C432        C433   1.376       .  A
C432        H435   1.082       .  S
C433        C434   1.392   1_455  A
C434        H436   1.082       .  S
N437        N438   1.318   1_565  A
N437        C441   1.345       .  A
N437       Cu445   2.060       .  S
N438        C439   1.343       .  A
N438       Cu444   2.069       .  S
C439        C440   1.387       .  A
C439        H442   1.082       .  S
C440        C602   1.486   1_545  S
C440        C441   1.383   1_545  A
C441        H443   1.082       .  S
Cu444       N447   2.069       .  S
Cu445       N455   2.058       .  S
Cu446       N448   2.095   1_565  S
Cu446       N454   2.093       .  S
N447        N448   1.323       .  A
N447        C451   1.340       .  A
N448        C449   1.348   1_545  A
C449        C450   1.394   1_565  A
C449        H452   1.082       .  S
C450        C684   1.531   1_445  S
C450        C451   1.387       .  A
C451        H453   1.081       .  S
N454        N455   1.322       .  A
N454        C458   1.356       .  A
N455        C456   1.333       .  A
C456        C457   1.378       .  A
C456        H459   1.082       .  S
C457        C458   1.391       .  A
C458        H460   1.082   1_565  S
N461        N462   1.317   1_545  A
N461        C465   1.344       .  A
N461       Cu469   2.050       .  S
N462        C463   1.343       .  A
N462       Cu468   2.065       .  S
C463        C464   1.385       .  A
C463        H466   1.082       .  S
C464        C560   1.479   1_565  S
C464        C465   1.381   1_565  A
C465        H467   1.082       .  S
Cu468       N471   2.065       .  S
Cu469       N479   2.048       .  S
Cu470       N472   2.108       .  S
Cu470       N478   2.105   1_565  S
N471        N472   1.323       .  A
N471        C475   1.339       .  A
N472        C473   1.351   1_565  A
C473        C474   1.396   1_545  A
C473        H476   1.082       .  S
C474        C475   1.385       .  A
C475        H477   1.081       .  S
N478        N479   1.322       .  A
N478        C482   1.358   1_545  A
N479        C480   1.331       .  A
C480        C481   1.376       .  A
C480        H483   1.082       .  S
C481        C553   1.477   1_545  S
C481        C482   1.394   1_545  A
C482        H484   1.082       .  S
N485        N486   1.320       .  A
N485        C489   1.349       .  A
N485       Cu493   2.064       .  S
N486        C487   1.341       .  A
N486       Cu492   2.084       .  S
C487        C488   1.390       .  A
C487        H490   1.081       .  S
C488        C630   1.493       .  S
C488        C489   1.386       .  A
C489        H491   1.081       .  S
Cu492       N495   2.083       .  S
Cu493       N503   2.063       .  S
Cu494       N496   2.086       .  S
Cu494       N502   2.085       .  S
N495        N496   1.321       .  A
N495        C499   1.346       .  A
N496        C497   1.346       .  A
C497        C498   1.394       .  A
C497        H500   1.081       .  S
C498        C499   1.392       .  A
C499        H501   1.080       .  S
N502        N503   1.322       .  A
N502        C506   1.354       .  A
N503        C504   1.335       .  A
C504        C505   1.380       .  A
C504        H507   1.082       .  S
C505        C529   1.473       .  S
C505        C506   1.389       .  A
C506        H508   1.082       .  S
N509        N510   1.316       .  A
N509        C513   1.346       .  A
N509       Cu517   2.053       .  S
N510        C511   1.339       .  A
N510       Cu516   2.056       .  S
C511        C512   1.385       .  A
C511        H514   1.081       .  S
C512        C658   1.486       .  S
C512        C513   1.385       .  A
C513        H515   1.081       .  S
Cu516       N519   2.056       .  S
Cu517       N527   2.052       .  S
Cu518       N520   2.105       .  S
Cu518       N526   2.103       .  S
N519        N520   1.322       .  A
N519        C523   1.340       .  A
N520        C521   1.348       .  A
C521        C522   1.397       .  A
C521        H524   1.082       .  S
C522        C523   1.384       .  A
C523        H525   1.079       .  S
N526        N527   1.323       .  A
N526        C530   1.356       .  A
N527        C528   1.333       .  A
C528        C529   1.375       .  A
C528        H531   1.082       .  S
C529        C530   1.392       .  A
C530        H532   1.082       .  S
N533        N534   1.318   1_565  A
N533        C537   1.345       .  A
N533       Cu541   2.057       .  S
N534        C535   1.344       .  A
N534       Cu540   2.069       .  S
C535        C536   1.386       .  A
C535        H538   1.082       .  S
C536        C588   1.484   1_545  S
C536        C537   1.383   1_545  A
C537        H539   1.082       .  S
Cu540       N543   2.068       .  S
Cu541       N551   2.056       .  S
Cu542       N544   2.099   1_565  S
Cu542       N550   2.097       .  S
N543        N544   1.323       .  A
N544        C545   1.350   1_545  A
C545        H548   1.082       .  S
C546       C1017   1.532   1_455  S
C546        C547   1.386       .  A
C547        H549   1.081       .  S
N550        N551   1.322       .  A
N550        C554   1.357       .  A
N551        C552   1.332       .  A
C552        C553   1.378       .  A
C552        H555   1.082       .  S
C553        C554   1.393       .  A
C554        H556   1.082   1_565  S
C557        C558   1.414   1_545  A
C558        C559   1.411       .  A
C558        C563   1.450       .  S
C559        C560   1.410   1_565  A
C559        C566   1.450       .  S
C561        C562   1.407       .  A
C561        C564   1.452       .  S
C562        C565   1.452       .  S
C563        N570   1.157       .  T
C564        N569   1.157       .  T
C565        N567   1.157       .  T
C566        N568   1.157       .  T
C571        C572   1.421       .  A
C572        C573   1.407       .  A
C572        C577   1.452       .  S
C573        C574   1.407       .  A
C573        C580   1.453       .  S
C575        C576   1.411       .  A
C575        C578   1.450       .  S
C576        C579   1.450       .  S
C577        N584   1.157       .  T
C578        N583   1.157       .  T
C579        N581   1.157       .  T
C580        N582   1.157       .  T
C585        C590   1.419       .  A
C586        C587   1.413       .  A
C586        C591   1.450       .  S
C587        C594   1.450       .  S
C588        C589   1.410       .  A
C589        C590   1.409       .  A
C589        C592   1.453       .  S
C590        C593   1.452       .  S
C591        N598   1.157       .  T
C592        N597   1.157       .  T
C593       N1263   1.157   1_455  T
C594        N596   1.157       .  T
N595       C1261   1.157       .  T
C599        C604   1.415       .  A
C600        C601   1.414       .  A
C600        C605   1.449       .  S
C601        C608   1.450       .  S
C602        C603   1.412       .  A
C603        C604   1.408       .  A
C603        C606   1.453       .  S
C604        C607   1.451       .  S
C605        N612   1.157       .  T
C606        N611   1.157       .  T
C607       N1277   1.157   1_455  T
C608        N610   1.157       .  T
N609       C1275   1.157       .  T
C613        C614   1.411       .  A
C613       C1286   1.408   1_455  A
C614        C615   1.415       .  A
C614        C619   1.450       .  S
C615        C616   1.415       .  A
C615        C622   1.450       .  S
C616       C1285   1.421   1_455  A
C617       C1284   1.421       .  A
C617        C618   1.409       .  A
C617        C620   1.450       .  S
C618       C1281   1.408       .  A
C618        C621   1.453       .  S
C619        N626   1.157       .  T
C620        N625   1.157       .  T
C621        N623   1.157       .  T
C622        N624   1.157       .  T
C627        C628   1.409       .  A
C627       C1300   1.411       .  A
C628        C629   1.399       .  A
C628        C633   1.443       .  S
C629        C630   1.409       .  A
C629        C636   1.453       .  S
C630       C1299   1.419       .  A
C631       C1298   1.419   1_455  A
C631        C632   1.422   1_455  A
C631        C634   1.448       .  S
C632       C1295   1.411       .  A
C632        C635   1.449       .  S
C634        N639   1.157       .  T
C635        N637   1.157   1_655  T
C636        N638   1.157       .  T
C641       C1310   1.420       .  A
C641        C646   1.422   1_655  A
C642       C1309   1.419       .  A
C642        C643   1.408       .  A
C642        C647   1.451       .  S
C643       C1312   1.411       .  A
C643        C650   1.452       .  S
C644       C1311   1.411       .  A
C644        C645   1.410   1_655  A
C645        C646   1.412       .  A
C645        C648   1.451       .  S
C646        C649   1.452       .  S
C647        N654   1.157       .  T
C648        N653   1.157       .  T
C649        N651   1.158       .  T
C650        N652   1.157       .  T
C655       C1324   1.418       .  A
C655        C660   1.422       .  A
C656       C1323   1.418   1_455  A
C656        C657   1.413       .  A
C656        C661   1.451       .  S
C657       C1326   1.413   1_455  A
C657        C664   1.450       .  S
C658       C1325   1.413       .  A
C658        C659   1.411       .  A
C659        C660   1.407       .  A
C659        C662   1.453       .  S
C660        C663   1.452       .  S
C661        N668   1.157       .  T
C662        N667   1.157       .  T
C663        N665   1.157       .  T
C664        N666   1.157       .  T
O669       Cu677   1.986       .  S
O669        C679   1.273       .  A
O670      Cu1011   2.000       .  S
O671      Cu1011   2.028       .  S
O671        C681   1.280       .  A
O672       Cu677   2.008       .  S
O673      Cu1012   1.997   1_545  S
O673        C682   1.276       .  A
O674       Cu678   2.012       .  S
O675       Cu678   2.024       .  S
O675        C680   1.280       .  A
O676      Cu1012   2.016   1_545  S
Cu677      O1004   2.000   1_545  S
Cu677      O1005   2.028   1_545  S
Cu678      O1007   1.997       .  S
Cu678      O1010   2.016       .  S
C679        C989   1.497       .  S
C680        C950   1.494       .  S
C681        C961   1.485       .  S
C682        C975   1.502       .  S
C683       C1142   1.534       .  S
C683       C1166   1.538   1_655  S
C683        C856   1.530   1_565  S
C684       C1032   1.536   1_655  S
C684        C736   1.531       .  S
C684        C760   1.531   1_565  S
N685        N686   1.319       .  A
N685        C689   1.345       .  A
N685       Cu693   2.056       .  S
N686        C687   1.346       .  A
N686       Cu692   2.081       .  S
C687        C688   1.388       .  A
C687        H690   1.081       .  S
C688        C947   1.483       .  S
C688        C689   1.381       .  A
C689        H691   1.081       .  S
Cu693       N703   2.053       .  S
Cu694       N702   2.094       .  S
N695        N696   1.324       .  A
N695        C699   1.343       .  A
N696        C697   1.348   1_455  A
C697        C698   1.394   1_655  A
C697        H700   1.082       .  S
C698       C1018   1.535   1_455  S
C698        C699   1.388       .  A
C699        H701   1.080       .  S
N702        N703   1.321       .  A
N702        C706   1.357       .  A
N703        C704   1.332       .  A
C704        C705   1.378       .  A
C704        H707   1.082       .  S
C705        C767   1.475       .  S
C705        C706   1.392       .  A
C706        H708   1.082       .  S
O709       C1053   1.278   1_545  A
O710       Cu717   2.002   1_556  S
O710       C1054   1.277       .  A
O711       Cu717   1.999       .  S
O711       C1055   1.277       .  A
O712       C1056   1.277   1_545  A
O713        C722   1.279       .  A
O714       Cu718   2.004       .  S
O714        C721   1.278       .  A
O715       Cu718   2.002   1_556  S
O715        C720   1.277       .  A
O716        C719   1.277       .  A
Cu717     Cu1052   2.370   1_545  S
Cu718     Cu1051   2.370       .  S
C719       O1043   1.278       .  A
C719        C933   1.483       .  S
C720       O1044   1.277       .  A
C720        C891   1.485       .  S
C721       O1045   1.277       .  A
C721       C1239   1.491       .  S
C722       O1046   1.277       .  A
C722        C919   1.489       .  S
N723        N724   1.318   1_545  A
N723        C727   1.344       .  A
N723       Cu731   2.050       .  S
N724        C725   1.343       .  A
N724       Cu730   2.063       .  S
C725        C726   1.384       .  A
C725        H728   1.082       .  S
C726        C908   1.476   1_565  S
C726        C727   1.380   1_565  A
C727        H729   1.082       .  S
Cu730       N733   2.063       .  S
Cu731       N741   2.048       .  S
Cu732       N734   2.106       .  S
Cu732       N740   2.103   1_565  S
N733        N734   1.323       .  A
N733        C737   1.340       .  A
N734        C735   1.350   1_565  A
C735        C736   1.396   1_545  A
C735        H738   1.082       .  S
C736        C737   1.384       .  A
C737        H739   1.081       .  S
N740        N741   1.322       .  A
N740        C744   1.358   1_545  A
N741        C742   1.332       .  A
C742        C743   1.375       .  A
C742        H745   1.082       .  S
C743       C1125   1.475   1_545  S
C743        C744   1.393   1_545  A
C744        H746   1.082       .  S
N747        N748   1.317       .  A
N747        C751   1.345       .  A
N747       Cu755   2.055       .  S
N748        C749   1.340       .  A
N748       Cu754   2.055       .  S
C749        C750   1.384       .  A
C749        H752   1.081       .  S
C750        C978   1.484       .  S
C750        C751   1.385       .  A
C751        H753   1.081       .  S
Cu755       N765   2.054       .  S
Cu756       N764   2.101       .  S
N757        N758   1.322       .  A
N757        C761   1.339       .  A
N758        C759   1.348       .  A
C759        C760   1.397       .  A
C759        H762   1.081   1_655  S
C760        C761   1.383       .  A
C761        H763   1.080       .  S
N764        N765   1.323       .  A
N764        C768   1.357       .  A
N765        C766   1.332       .  A
C766        C767   1.376       .  A
C766        H769   1.082       .  S
C767        C768   1.392       .  A
C768        H770   1.082       .  S
N771        N772   1.318       .  A
N771        C775   1.345       .  A
N771       Cu779   2.060       .  S
N772        C773   1.343       .  A
N772       Cu778   2.069       .  S
C773        C774   1.387       .  A
C773        H776   1.082       .  S
C774        C936   1.486       .  S
C774        C775   1.383       .  A
C775        H777   1.082       .  S
Cu778       N781   2.069       .  S
Cu779       N789   2.058       .  S
Cu780       N782   2.095       .  S
Cu780       N788   2.093       .  S
N781        N782   1.323       .  A
N781        C785   1.340       .  A
N782        C783   1.348       .  A
C783        C784   1.394       .  A
C783        H786   1.082       .  S
C784        C785   1.387       .  A
C785        H787   1.081       .  S
N788        N789   1.322       .  A
N788        C792   1.356       .  A
N789        C790   1.333       .  A
C790        C791   1.378       .  A
C790        H793   1.082       .  S
C791       C1077   1.475       .  S
C791        C792   1.391       .  A
C792        H794   1.082       .  S
N795        N796   1.317       .  A
N795        C799   1.344       .  A
N795       Cu803   2.050       .  S
N796        C797   1.343       .  A
N796       Cu802   2.065       .  S
C797        C798   1.385       .  A
C797        H800   1.082       .  S
C798        C894   1.479       .  S
C798        C799   1.381       .  A
C799        H801   1.082       .  S
Cu802       N805   2.065       .  S
Cu803       N813   2.048       .  S
Cu804       N806   2.108       .  S
Cu804       N812   2.105       .  S
N805        N806   1.323       .  A
N805        C809   1.339       .  A
N806        C807   1.351       .  A
C807        C808   1.396       .  A
C807        H810   1.082       .  S
C808       C1017   1.534       .  S
C808        C809   1.385       .  A
C809        H811   1.081       .  S
N812        N813   1.322       .  A
N812        C816   1.358       .  A
N813        C814   1.331       .  A
C814        C815   1.376       .  A
C814        H817   1.082       .  S
C815        C887   1.477       .  S
C815        C816   1.394       .  A
C816        H818   1.082       .  S
N819        N820   1.320   1_655  A
N819        C823   1.349       .  A
N819       Cu827   2.064       .  S
N820        C821   1.341       .  A
N820       Cu826   2.084       .  S
C821        C822   1.390       .  A
C821        H824   1.081       .  S
C822        C964   1.493   1_455  S
C822        C823   1.386   1_455  A
C823        H825   1.081       .  S
Cu826       N829   2.083       .  S
Cu827       N837   2.063       .  S
Cu828       N830   2.086   1_655  S
Cu828       N836   2.085       .  S
N829        N830   1.321       .  A
N829        C833   1.346       .  A
N830        C831   1.346   1_455  A
C831        C832   1.394   1_655  A
C831        H834   1.081       .  S
C832       C1017   1.538   1_455  S
C832        C833   1.392       .  A
C833        H835   1.080       .  S
N836        N837   1.322       .  A
N836        C840   1.354       .  A
N837        C838   1.335       .  A
C838        C839   1.380       .  A
C838        H841   1.082       .  S
C839        C863   1.473       .  S
C839        C840   1.389       .  A
C840        H842   1.082   1_655  S
N843        N844   1.316   1_455  A
N843        C847   1.346       .  A
N843       Cu851   2.053       .  S
N844        C845   1.339       .  A
N844       Cu850   2.056       .  S
C845        C846   1.385       .  A
C845        H848   1.081       .  S
C846        C992   1.486       .  S
C846        C847   1.385   1_655  A
C847        H849   1.081       .  S
Cu850       N853   2.056       .  S
Cu851       N861   2.052       .  S
Cu852       N854   2.105       .  S
Cu852       N860   2.103       .  S
N853        N854   1.322       .  A
N853        C857   1.340       .  A
N854        C855   1.348       .  A
C855        C856   1.397       .  A
C855        H858   1.082       .  S
C856        C857   1.384       .  A
C857        H859   1.079       .  S
N860        N861   1.323   1_655  A
N860        C864   1.356       .  A
N861        C862   1.333       .  A
C862        C863   1.375   1_455  A
C862        H865   1.082       .  S
C863        C864   1.392       .  A
C864        H866   1.082       .  S
N867        N868   1.318       .  A
N867        C871   1.345       .  A
N867       Cu875   2.057       .  S
N868        C869   1.344       .  A
N868       Cu874   2.069       .  S
C869        C870   1.386       .  A
C869        H872   1.082       .  S
C870        C922   1.484       .  S
C870        C871   1.383       .  A
C871        H873   1.082       .  S
Cu874       N877   2.068       .  S
Cu875       N885   2.056       .  S
Cu876       N878   2.099       .  S
Cu876       N884   2.097       .  S
N877        N878   1.323       .  A
N877       C1215   1.339       .  A
N878        C879   1.350       .  A
C879       C1214   1.395       .  A
C879        H882   1.082       .  S
C880       C1213   1.395   1_545  A
C880        C881   1.386       .  A
C881       N1211   1.339       .  A
C881        H883   1.081       .  S
N884        N885   1.322       .  A
N884        C888   1.357       .  A
N885        C886   1.332       .  A
C886        C887   1.378       .  A
C886        H889   1.082       .  S
C887        C888   1.393       .  A
C888        H890   1.082       .  S
C891        C892   1.414       .  A
C891       C1230   1.418       .  A
C892        C893   1.411       .  A
C892        C897   1.450       .  S
C893        C894   1.410       .  A
C893        C900   1.450       .  S
C894       C1229   1.409       .  A
C895       C1228   1.409       .  A
C895        C896   1.407       .  A
C895        C898   1.452       .  S
C896       C1225   1.418       .  A
C896        C899   1.452       .  S
C897        N904   1.157       .  T
C898        N903   1.157       .  T
C899        N901   1.157       .  T
C900        N902   1.157       .  T
C905       C1055   1.491       .  S
C905        C906   1.421       .  A
C905       C1244   1.417   1_545  A
C906        C907   1.407       .  A
C906        C911   1.452       .  S
C907        C908   1.407       .  A
C907        C914   1.453       .  S
C908       C1243   1.408   1_545  A
C909       C1242   1.408       .  A
C909        C910   1.411       .  A
C909        C912   1.450       .  S
C910       C1239   1.417       .  A
C910        C913   1.450       .  S
C911        N918   1.157       .  T
C912        N917   1.157       .  T
C913        N915   1.157       .  T
C914        N916   1.157       .  T
C919       C1254   1.414       .  A
C919        C924   1.419       .  A
C920       C1253   1.414   1_545  A
C920        C921   1.413       .  A
C920        C925   1.450       .  S
C921       C1256   1.411   1_545  A
C921        C928   1.450       .  S
C922       C1255   1.411       .  A
C922        C923   1.410       .  A
C923        C924   1.409       .  A
C923        C926   1.453       .  S
C924        C927   1.452       .  S
C925        N932   1.157       .  T
C926        N931   1.157       .  T
C928        N930   1.157       .  T
C933       C1268   1.410       .  A
C933        C938   1.415       .  A
C934       C1267   1.410   1_545  A
C934        C935   1.414       .  A
C934        C939   1.449       .  S
C935       C1270   1.414   1_545  A
C935        C942   1.450       .  S
C936       C1269   1.414       .  A
C936        C937   1.412       .  A
C937        C938   1.408       .  A
C937        C940   1.453       .  S
C938        C941   1.451       .  S
C939        N946   1.157       .  T
C940        N945   1.157       .  T
C942        N944   1.157       .  T
C947        C948   1.411       .  A
C948        C949   1.415       .  A
C948        C953   1.450       .  S
C949        C950   1.414       .  A
C949        C956   1.450       .  S
C951        C952   1.409       .  A
C951        C954   1.450       .  S
C952        C955   1.453       .  S
C953        N960   1.157       .  T
C954        N959   1.157       .  T
C955        N957   1.157       .  T
C956        N958   1.157       .  T
C961        C962   1.409   1_655  A
C962        C963   1.399   1_455  A
C962        C967   1.443       .  S
C963        C964   1.409       .  A
C963        C970   1.453       .  S
C965        C966   1.422       .  A
C965        C968   1.448       .  S
C966        C969   1.449       .  S
C967       N1308   1.155       .  T
C968        N973   1.157       .  T
C969        N971   1.157       .  T
C970        N972   1.157       .  T
N974       C1301   1.155   1_545  T
C975        C980   1.422       .  A
C976        C977   1.408       .  A
C976        C981   1.451       .  S
C977        C984   1.452       .  S
C978        C979   1.410       .  A
C979        C980   1.412       .  A
C979        C982   1.451       .  S
C980        C983   1.452       .  S
C981        N988   1.157       .  T
C982        N987   1.157       .  T
C983        N985   1.158       .  T
C984        N986   1.157       .  T
C989        C994   1.422       .  A
C990        C991   1.413       .  A
C990        C995   1.451       .  S
C991        C998   1.450       .  S
C992        C993   1.411       .  A
C993        C994   1.407       .  A
C993        C996   1.454       .  S
C994        C997   1.452       .  S
C995       N1002   1.157       .  T
C996       N1001   1.157       .  T
C997        N999   1.157       .  T
C998       N1000   1.157       .  T
O1003     Cu1011   1.986       .  S
O1003      C1013   1.273       .  A
O1005      C1015   1.280       .  A
O1006     Cu1011   2.008       .  S
O1007      C1016   1.276       .  A
O1008     Cu1012   2.012       .  S
O1009     Cu1012   2.024       .  S
O1009      C1014   1.280       .  A
C1013      C1323   1.497       .  S
C1014      C1284   1.494       .  S
C1015      C1295   1.485       .  S
C1016      C1309   1.502       .  S
C1017      C1190   1.530       .  S
C1018      C1070   1.531       .  S
C1018      C1094   1.531       .  S
N1019      N1020   1.319       .  A
N1019      C1023   1.345       .  A
N1019     Cu1027   2.056       .  S
N1020      C1021   1.346       .  A
N1020     Cu1026   2.081       .  S
C1021      C1022   1.388       .  A
C1021      H1024   1.081       .  S
C1022      C1281   1.483       .  S
C1022      C1023   1.381       .  A
C1023      H1025   1.081       .  S
Cu1027     N1037   2.053       .  S
Cu1028     N1036   2.094       .  S
N1029      N1030   1.324       .  A
N1029      C1033   1.343       .  A
N1030      C1031   1.348   1_455  A
C1031      C1032   1.394   1_655  A
C1031      H1034   1.082       .  S
C1032      C1033   1.388       .  A
C1033      H1035   1.080       .  S
N1036      N1037   1.321       .  A
N1036      C1040   1.357       .  A
N1037      C1038   1.332       .  A
C1038      C1039   1.378       .  A
C1038      H1041   1.082       .  S
C1039      C1101   1.475       .  S
C1039      C1040   1.392       .  A
C1040      H1042   1.082       .  S
O1044     Cu1051   2.003   1_556  S
O1045     Cu1051   2.000       .  S
O1047      C1056   1.279       .  A
O1048     Cu1052   2.003       .  S
O1048      C1055   1.278   1_565  A
O1049     Cu1052   2.002   1_556  S
O1049      C1054   1.277   1_565  A
O1050      C1053   1.277       .  A
C1053      C1267   1.483       .  S
C1054      C1225   1.485       .  S
C1056      C1253   1.489       .  S
N1057      N1058   1.318       .  A
N1057      C1061   1.344       .  A
N1057     Cu1065   2.050       .  S
N1058      C1059   1.343       .  A
N1058     Cu1064   2.063       .  S
C1059      C1060   1.384       .  A
C1059      H1062   1.082       .  S
C1060      C1242   1.476       .  S
C1060      C1061   1.380       .  A
C1061      H1063   1.082       .  S
Cu1064     N1067   2.063       .  S
Cu1065     N1075   2.048       .  S
Cu1066     N1068   2.106       .  S
Cu1066     N1074   2.103       .  S
N1067      N1068   1.323       .  A
N1067      C1071   1.340       .  A
N1068      C1069   1.350       .  A
C1069      C1070   1.396       .  A
C1069      H1072   1.082       .  S
C1070      C1071   1.384       .  A
C1071      H1073   1.081       .  S
N1074      N1075   1.322       .  A
N1074      C1078   1.358       .  A
N1075      C1076   1.332       .  A
C1076      C1077   1.375       .  A
C1076      H1079   1.082       .  S
C1077      C1078   1.393       .  A
C1078      H1080   1.082       .  S
N1081      N1082   1.317       .  A
N1081      C1085   1.345       .  A
N1081     Cu1089   2.055       .  S
N1082      C1083   1.340       .  A
N1082     Cu1088   2.055       .  S
C1083      C1084   1.384       .  A
C1083      H1086   1.081       .  S
C1084      C1312   1.484       .  S
C1084      C1085   1.385       .  A
C1085      H1087   1.081       .  S
Cu1089     N1099   2.054       .  S
Cu1090     N1098   2.101       .  S
N1091      N1092   1.322       .  A
N1091      C1095   1.339       .  A
N1092      C1093   1.348       .  A
C1093      C1094   1.397       .  A
C1093      H1096   1.081   1_655  S
C1094      C1095   1.383       .  A
C1095      H1097   1.080       .  S
N1098      N1099   1.323       .  A
N1098      C1102   1.357       .  A
N1099      C1100   1.332       .  A
C1100      C1101   1.376       .  A
C1100      H1103   1.082       .  S
C1101      C1102   1.392       .  A
C1102      H1104   1.082       .  S
N1105      N1106   1.318   1_565  A
N1105      C1109   1.345       .  A
N1105     Cu1113   2.060       .  S
N1106      C1107   1.343       .  A
N1106     Cu1112   2.069       .  S
C1107      C1108   1.387       .  A
C1107      H1110   1.082       .  S
C1108      C1270   1.486   1_545  S
C1108      C1109   1.384   1_545  A
C1109      H1111   1.082       .  S
Cu1112     N1115   2.069       .  S
Cu1113     N1123   2.058       .  S
Cu1114     N1116   2.095   1_565  S
Cu1114     N1122   2.092       .  S
N1115      N1116   1.323       .  A
N1115      C1119   1.340       .  A
N1116      C1117   1.348   1_545  A
C1117      C1118   1.394   1_565  A
C1117      H1120   1.082       .  S
C1118      C1119   1.387       .  A
C1119      H1121   1.081       .  S
N1122      N1123   1.322       .  A
N1122      C1126   1.356       .  A
N1123      C1124   1.333       .  A
C1124      C1125   1.378       .  A
C1124      H1127   1.082       .  S
C1125      C1126   1.391       .  A
C1126      H1128   1.082   1_565  S
N1129      N1130   1.317   1_545  A
N1129      C1133   1.344       .  A
N1129     Cu1137   2.050       .  S
N1130      C1131   1.343       .  A
N1130     Cu1136   2.065       .  S
C1131      C1132   1.385       .  A
C1131      H1134   1.082       .  S
C1132      C1228   1.479   1_565  S
C1132      C1133   1.381   1_565  A
C1133      H1135   1.082       .  S
Cu1136     N1139   2.065       .  S
Cu1137     N1147   2.047       .  S
Cu1138     N1140   2.108       .  S
Cu1138     N1146   2.105   1_565  S
N1139      N1140   1.323       .  A
N1139      C1143   1.339       .  A
N1140      C1141   1.351   1_565  A
C1141      C1142   1.396   1_545  A
C1141      H1144   1.082       .  S
C1142      C1143   1.385       .  A
C1143      H1145   1.081       .  S
N1146      N1147   1.322       .  A
N1146      C1150   1.358   1_545  A
N1147      C1148   1.331       .  A
C1148      C1149   1.376       .  A
C1148      H1151   1.082       .  S
C1149      C1221   1.477   1_545  S
C1149      C1150   1.394   1_545  A
C1150      H1152   1.082       .  S
N1153      N1154   1.320   1_655  A
N1153      C1157   1.349       .  A
N1153     Cu1161   2.064       .  S
N1154      C1155   1.341       .  A
N1154     Cu1160   2.084       .  S
C1155      C1156   1.390       .  A
C1155      H1158   1.081       .  S
C1156      C1298   1.493   1_455  S
C1156      C1157   1.386   1_455  A
C1157      H1159   1.081       .  S
Cu1160     N1163   2.083       .  S
Cu1161     N1171   2.063       .  S
Cu1162     N1164   2.086   1_655  S
Cu1162     N1170   2.085       .  S
N1163      N1164   1.321       .  A
N1163      C1167   1.346       .  A
N1164      C1165   1.346   1_455  A
C1165      C1166   1.394   1_655  A
C1165      H1168   1.081       .  S
C1166      C1167   1.392       .  A
C1167      H1169   1.080       .  S
N1170      N1171   1.322       .  A
N1170      C1174   1.354       .  A
N1171      C1172   1.335       .  A
C1172      C1173   1.380       .  A
C1172      H1175   1.082       .  S
C1173      C1197   1.473       .  S
C1173      C1174   1.389       .  A
C1174      H1176   1.082   1_655  S
N1177      N1178   1.316   1_455  A
N1177      C1181   1.346       .  A
N1177     Cu1185   2.053       .  S
N1178      C1179   1.339       .  A
N1178     Cu1184   2.056       .  S
C1179      C1180   1.385       .  A
C1179      H1182   1.081       .  S
C1180      C1326   1.486       .  S
C1180      C1181   1.385   1_655  A
C1181      H1183   1.081       .  S
Cu1184     N1187   2.056       .  S
Cu1185     N1195   2.052       .  S
Cu1186     N1188   2.105       .  S
Cu1186     N1194   2.104       .  S
N1187      N1188   1.322       .  A
N1187      C1191   1.340       .  A
N1188      C1189   1.348       .  A
C1189      C1190   1.397       .  A
C1189      H1192   1.082       .  S
C1190      C1191   1.384       .  A
C1191      H1193   1.079       .  S
N1194      N1195   1.323   1_655  A
N1194      C1198   1.356       .  A
N1195      C1196   1.333       .  A
C1196      C1197   1.375   1_455  A
C1196      H1199   1.082       .  S
C1197      C1198   1.392       .  A
C1198      H1200   1.082       .  S
N1201      N1202   1.318   1_565  A
N1201      C1205   1.345       .  A
N1201     Cu1209   2.057       .  S
N1202      C1203   1.344       .  A
N1202     Cu1208   2.069       .  S
C1203      C1204   1.386       .  A
C1203      H1206   1.082       .  S
C1204      C1256   1.484   1_545  S
C1204      C1205   1.383   1_545  A
C1205      H1207   1.082       .  S
Cu1208     N1211   2.068       .  S
Cu1209     N1219   2.056       .  S
Cu1210     N1212   2.099   1_565  S
Cu1210     N1218   2.097       .  S
N1211      N1212   1.323       .  A
N1212      C1213   1.350   1_545  A
C1213      H1216   1.082       .  S
C1214      C1215   1.386       .  A
C1215      H1217   1.081       .  S
N1218      N1219   1.322       .  A
N1218      C1222   1.357       .  A
N1219      C1220   1.332       .  A
C1220      C1221   1.378       .  A
C1220      H1223   1.082       .  S
C1221      C1222   1.393       .  A
C1222      H1224   1.082   1_565  S
C1225      C1226   1.414   1_545  A
C1226      C1227   1.411       .  A
C1226      C1231   1.450       .  S
C1227      C1228   1.410   1_565  A
C1227      C1234   1.450       .  S
C1229      C1230   1.407       .  A
C1229      C1232   1.452       .  S
C1230      C1233   1.452       .  S
C1231      N1238   1.157       .  T
C1232      N1237   1.157       .  T
C1233      N1235   1.157       .  T
C1234      N1236   1.157       .  T
C1239      C1240   1.421       .  A
C1240      C1241   1.407       .  A
C1240      C1245   1.452       .  S
C1241      C1242   1.407       .  A
C1241      C1248   1.453       .  S
C1243      C1244   1.411       .  A
C1243      C1246   1.450       .  S
C1244      C1247   1.450       .  S
C1245      N1252   1.157       .  T
C1246      N1251   1.157       .  T
C1247      N1249   1.157       .  T
C1248      N1250   1.157       .  T
C1253      C1258   1.419       .  A
C1254      C1255   1.413       .  A
C1254      C1259   1.450       .  S
C1255      C1262   1.450       .  S
C1256      C1257   1.410       .  A
C1257      C1258   1.409       .  A
C1257      C1260   1.453       .  S
C1258      C1261   1.452       .  S
C1259      N1266   1.157       .  T
C1260      N1265   1.157       .  T
C1262      N1264   1.157       .  T
C1267      C1272   1.415       .  A
C1268      C1269   1.414       .  A
C1268      C1273   1.449       .  S
C1269      C1276   1.450       .  S
C1270      C1271   1.412       .  A
C1271      C1272   1.408       .  A
C1271      C1274   1.453       .  S
C1272      C1275   1.451       .  S
C1273      N1280   1.157       .  T
C1274      N1279   1.157       .  T
C1276      N1278   1.157       .  T
C1281      C1282   1.411       .  A
C1282      C1283   1.415       .  A
C1282      C1287   1.450       .  S
C1283      C1284   1.415       .  A
C1283      C1290   1.450       .  S
C1285      C1286   1.409       .  A
C1285      C1288   1.450       .  S
C1286      C1289   1.453       .  S
C1287      N1294   1.157       .  T
C1288      N1293   1.157       .  T
C1289      N1291   1.157       .  T
C1290      N1292   1.157       .  T
C1295      C1296   1.409   1_655  A
C1296      C1297   1.399   1_455  A
C1296      C1301   1.443       .  S
C1297      C1298   1.409       .  A
C1297      C1304   1.453       .  S
C1299      C1300   1.422       .  A
C1299      C1302   1.448       .  S
C1300      C1303   1.449       .  S
C1302      N1307   1.157       .  T
C1303      N1305   1.157       .  T
C1304      N1306   1.157       .  T
C1309      C1314   1.422       .  A
C1310      C1311   1.408       .  A
C1310      C1315   1.451       .  S
C1311      C1318   1.453       .  S
C1312      C1313   1.410       .  A
C1313      C1314   1.412       .  A
C1313      C1316   1.451       .  S
C1314      C1317   1.452       .  S
C1315      N1322   1.157       .  T
C1316      N1321   1.157       .  T
C1317      N1319   1.158       .  T
C1318      N1320   1.157       .  T
C1323      C1328   1.422       .  A
C1324      C1325   1.413       .  A
C1324      C1329   1.451       .  S
C1325      C1332   1.450       .  S
C1326      C1327   1.411       .  A
C1327      C1328   1.407       .  A
C1327      C1330   1.453       .  S
C1328      C1331   1.452       .  S
C1329      N1336   1.157       .  T
C1330      N1335   1.157       .  T
C1331      N1333   1.157       .  T
C1332      N1334   1.157       .  T
