geometry optimzed in LAMMPS
_audit_creation_date              2020-11-30 
_audit_creation_method            'lammps2cif' 
_symmetry_space_group_name_H-M    'P1' 
_symmetry_Int_Tables_number       1 
_symmetry_cell_setting            triclinic 
loop_ 
_symmetry_equiv_pos_as_xyz 
  x,y,z 
_cell_length_a                    48.31191257 
_cell_length_b                    31.044191976764296 
_cell_length_c                    40.27796732296774 
_cell_angle_alpha                 93.0595248717951 
_cell_angle_beta                  60.23875522331791 
_cell_angle_gamma                 87.69912986734808 
loop_ 
_atom_site_label 
_atom_site_type_symbol 
_atom_site_fract_x 
_atom_site_fract_y 
_atom_site_fract_z 
_atom_site_charge 
N1          N  0.34904693  0.73988282  0.46104682    -0.26800
N2          N  0.35359850  0.70207462  0.47184773    -0.34700
C3          C  0.36300169  0.70843665  0.49786307     0.01500
C4          C  0.36486436  0.75232943  0.50319584     0.07600
C5          C  0.35601224  0.77139254  0.47932673    -0.05500
H6          H  0.36957250  0.68283818  0.51042961     0.08200
H7          H  0.35517391  0.80543285  0.47507872     0.09400
Cu8        Cu  0.35032021  0.64359801  0.44752200     0.44200
Cu9        Cu  0.33435316  0.74587645  0.42140194     0.42000
Cu10       Cu  0.32886004  0.64571851  0.37334804     0.43900
N11         N  0.34876883  0.58865230  0.41737385    -0.34200
N12         N  0.34079952  0.58889767  0.39036004    -0.28400
C13         C  0.34270186  0.54778948  0.37638312    -0.04500
C14         C  0.35248690  0.52064315  0.39546969     0.07700
C15         C  0.35608401  0.54768782  0.42119641     0.01500
H16         H  0.33771848  0.53845104  0.35372591     0.09100
H17         H  0.36369722  0.53840372  0.44110429     0.08200
N18         N  0.31862159  0.70777652  0.36283485    -0.35600
N19         N  0.31989362  0.74364564  0.38115625    -0.27800
C20         C  0.31091159  0.77797765  0.36884642    -0.03100
C21         C  0.30404491  0.76318001  0.34107764     0.05500
C22         C  0.30918728  0.71857291  0.33785265     0.03600
H23         H  0.30974276  0.81126171  0.37919321     0.08700
H24         H  0.30578194  0.69562320  0.31926088     0.07600
N25         N  0.37185470  0.40553328  0.39397706    -0.26800
N26         N  0.36274895  0.40483482  0.36793907    -0.34700
C27         C  0.35443602  0.44552615  0.36445431     0.01500
C28         C  0.35853313  0.47320279  0.38944804     0.07600
C29         C  0.36960722  0.44678172  0.40768991    -0.05500
H30         H  0.34588869  0.45420682  0.34526845     0.08200
H31         H  0.37561325  0.45674346  0.42934400     0.09400
Cu32       Cu  0.36096879  0.34873787  0.33904988     0.44200
Cu33       Cu  0.38701611  0.35048323  0.40981148     0.42000
Cu34       Cu  0.38389999  0.24894996  0.36443593     0.43900
N35         N  0.35590916  0.28806354  0.31968906    -0.34200
N36         N  0.36283041  0.25176972  0.33069274    -0.28400
C37         C  0.35256043  0.21855011  0.31808598    -0.04500
C38         C  0.33916123  0.23463968  0.29752637     0.07700
C39         C  0.34168985  0.27876733  0.29897644     0.01500
H40         H  0.35381244  0.18536077  0.32449662     0.09100
H41         H  0.33180342  0.30262565  0.28831104     0.08200
N42         N  0.40285267  0.25403226  0.40042021    -0.35600
N43         N  0.40295491  0.29094604  0.41830527    -0.27800
C44         C  0.41522435  0.28288070  0.44112701    -0.03100
C45         C  0.42356364  0.23890726  0.43691177     0.05500
C46         C  0.41548115  0.22165161  0.41082879     0.03600
H47         H  0.41798903  0.30722901  0.45928580     0.08700
H48         H  0.41779524  0.18792263  0.40089754     0.07600
N49         N  0.44861361  0.19655091  0.50111101    -0.26800
N50         N  0.45911158  0.16380032  0.47437915    -0.34700
C51         C  0.45210954  0.17394637  0.44714855     0.01500
C52         C  0.43685793  0.21517096  0.45711902     0.07600
C53         C  0.43516211  0.22856505  0.49136256    -0.05500
H54         H  0.45759522  0.15281788  0.42207131     0.08200
H55         H  0.42397317  0.25873378  0.50865449     0.09400
Cu56       Cu  0.48228206  0.10676632  0.47644295     0.44200
Cu57       Cu  0.45022044  0.19536788  0.55140675     0.42000
Cu58       Cu  0.48208996  0.09583758  0.56592833     0.43900
N59         N  0.50467717  0.05404211  0.48608047    -0.34200
N60         N  0.50352956  0.04950554  0.51924949    -0.28400
C61         C  0.52166626  0.01364171  0.51579539    -0.04500
C62         C  0.53506320  0.99511120  0.47863222     0.07700
C63         C  0.52401350  0.02145692  0.46038981     0.01500
H64         H  0.02676561  0.00378631  0.53768601     0.09100
H65         H  0.53088599  0.01857941  0.43034474     0.08200
N66         N  0.46316835  0.14897815  0.60648676    -0.35600
N67         N  0.45147236  0.18542824  0.60101140    -0.28600
C68         C  0.44119061  0.21351098  0.63213893    -0.03100
C69         C  0.44684992  0.19390240  0.65843610     0.05500
C70         C  0.46085192  0.15303804  0.64123609     0.03600
H71         H  0.43059608  0.24588899  0.63521365     0.08700
H72         H  0.46879430  0.12808774  0.65304798     0.07600
N73         N  0.43785461  0.22251458  0.75229394    -0.26800
N74         N  0.42330719  0.25728477  0.74858568    -0.34700
C75         C  0.42403473  0.25251206  0.71473515     0.01500
C76         C  0.43981081  0.21269948  0.69641784     0.07600
C77         C  0.44822041  0.19457316  0.72108687    -0.05500
H78         H  0.41398222  0.27631035  0.70421071     0.08200
H79         H  0.96139997  0.16374633  0.71645625     0.09400
Cu80       Cu  0.40385435  0.30881229  0.79059263     0.44200
Cu81       Cu  0.94456281  0.21712960  0.79866010     0.42000
Cu82       Cu  0.92410867  0.31271962  0.86674914     0.43900
N83         N  0.38459762  0.35498627  0.83725595    -0.34200
N84         N  0.39174086  0.35707871  0.86506225    -0.28400
C85         C  0.37435792  0.39088927  0.89068654    -0.04500
C86         C  0.35552555  0.41042105  0.87804620     0.07700
C87         C  0.36263848  0.38723967  0.84423275     0.01500
H88         H  0.37561543  0.40054476  0.91608061     0.09100
H89         H  0.35274279  0.39356053  0.82590362     0.08200
N90         N  0.95094627  0.25767715  0.86431832    -0.35600
N91         N  0.95612633  0.22234927  0.84151507    -0.27800
C92         C  0.97203466  0.19147694  0.84892367    -0.03100
C93         C  0.97760111  0.20835308  0.87721735     0.05500
C94         C  0.96409928  0.25040192  0.88633659     0.03600
H95         H  0.97965243  0.15943454  0.83409495     0.08700
H96         H  0.96319518  0.27359458  0.90794116     0.07600
N97         N  0.06082253  0.96168880  0.46103864    -0.03000
C98         C  0.56020998  0.92222157  0.47392917    -0.00400
C99         C  0.09006310  0.90036384  0.45414328    -0.23300
C100        C  0.10987797  0.92747830  0.42800426    -0.23500
C101        C  0.09143732  0.96520674  0.43278363    -0.00500
H102        H  0.09672895  0.86820578  0.45821284     0.13300
H103        H  0.13525725  0.92059598  0.40931164     0.13300
N104        N  0.33470889  0.44924942  0.89379801    -0.03000
C105        C  0.33716306  0.48091182  0.87098571    -0.00400
C106        C  0.30736266  0.49931231  0.88091310    -0.23300
C107        C  0.28581713  0.47891480  0.91203087    -0.23500
C108        C  0.30326945  0.44918632  0.92032147    -0.00500
H109        H  0.30198602  0.52647667  0.86876324     0.13300
H110        H  0.26040951  0.48722821  0.92817629     0.13300
N111        N  0.39801807  0.77989308  0.56381480    -0.26800
N112        N  0.40777627  0.81153946  0.54083695    -0.34700
C113        C  0.39530246  0.80867403  0.51751454     0.01500
C114        C  0.37731576  0.77310325  0.52604835     0.07600
C115        C  0.37949041  0.75573228  0.55553970    -0.05500
H116        H  0.40141103  0.82831495  0.49375942     0.08200
H117        H  0.37024989  0.72595252  0.56816946     0.09400
Cu118      Cu  0.44341412  0.84981569  0.53647057     0.44200
Cu119      Cu  0.41517376  0.76518105  0.59974999     0.42000
Cu120      Cu  0.48587028  0.81370088  0.58574497     0.43900
N121        N  0.48526961  0.87392519  0.52928348    -0.34200
N122        N  0.50129305  0.85945409  0.54572400    -0.28400
C123        C  0.52979373  0.87652149  0.53002461    -0.04500
C124        C  0.53151680  0.90349700  0.50298711     0.07700
C125        C  0.50294553  0.90116380  0.50323716     0.01500
H126        H  0.54848698  0.86823724  0.53647762     0.09100
H127        H  0.49663295  0.91520457  0.48364073     0.08200
N128        N  0.46583062  0.76521849  0.62224404    -0.35600
N129        N  0.43966776  0.74782798  0.62719367    -0.27800
C130        C  0.43308637  0.71618215  0.65083233    -0.03100
C131        C  0.45619230  0.71344523  0.66140223     0.05500
C132        C  0.47660310  0.74506958  0.64289846     0.03600
H133        H  0.41315832  0.69627849  0.65919967     0.08700
H134        H  0.49791287  0.75242928  0.64384400     0.07600
N135        N  0.99871327  0.62354801  0.80330654    -0.26800
N136        N  0.98593101  0.59372600  0.82780728    -0.34700
C137        C  0.99315815  0.60014738  0.85595692     0.01500
C138        C  0.01076861  0.63609552  0.84889281     0.07600
C139        C  0.01381051  0.64992950  0.81537801    -0.05500
H140        H  0.98376035  0.58262254  0.88141490     0.08200
H141        H  0.02437979  0.67884916  0.80205802     0.09400
Cu142      Cu  0.95320053  0.55280739  0.82638296     0.44200
Cu143      Cu  0.99044152  0.63437029  0.75881003     0.42000
Cu144      Cu  0.42302495  0.58556830  0.76417083     0.43900
N145        N  0.41401744  0.52747831  0.82580846    -0.34200
N146        N  0.40227935  0.54112447  0.80439712    -0.28400
C147        C  0.37397241  0.52452846  0.81544568    -0.04500
C148        C  0.36773846  0.49865803  0.84486525     0.07700
C149        C  0.39367040  0.50110623  0.85058051     0.01500
H150        H  0.35831148  0.53266048  0.80431842     0.09100
H151        H  0.39610282  0.48792638  0.87341969     0.08200
N152        N  0.44623856  0.63211273  0.72715635    -0.35600
N153        N  0.47153219  0.64986755  0.72461735    -0.27800
C154        C  0.47965620  0.68095299  0.70006516    -0.03100
C155        C  0.45827109  0.68276637  0.68670183     0.05500
C156        C  0.43751269  0.65129220  0.70433468     0.03600
H157        H  0.99883283  0.70174446  0.69369332     0.08700
H158        H  0.41693259  0.64377323  0.70180663     0.07600
N159        N  0.03679666  0.83892285  0.97900488    -0.26800
N160        N  0.03052136  0.83657058  0.95061714    -0.34700
C161        C  0.02754936  0.87685370  0.94140812     0.01500
C162        C  0.03262105  0.90566083  0.96497148     0.07600
C163        C  0.03847641  0.88050391  0.98838450    -0.05500
H164        H  0.02318781  0.88443562  0.91841604     0.08200
H165        H  0.04427200  0.89142113  0.01001397     0.09400
Cu166      Cu  0.02894755  0.77774694  0.92489458     0.44200
Cu167      Cu  0.04578130  0.78509568  0.00064646     0.42000
Cu168      Cu  0.05059839  0.67849935  0.95535914     0.43900
N169        N  0.02711140  0.71536827  0.90520718    -0.34200
N170        N  0.03335026  0.67937137  0.91728571    -0.28400
C171        C  0.02805017  0.64518109  0.89964994    -0.04500
C172        C  0.01866206  0.66059759  0.87489066     0.07700
C173        C  0.01840738  0.70505287  0.87909282     0.01500
H174        H  0.03154274  0.61169441  0.90383630     0.09100
H175        H  0.01186309  0.72835336  0.86464895     0.08200
N176        N  0.06850806  0.69116831  0.99200736    -0.35600
N177        N  0.06521016  0.72989223  0.00945034    -0.27800
C178        C  0.08142919  0.72922204  0.02840574    -0.03100
C179        C  0.09602092  0.68827520  0.02240988     0.05500
C180        C  0.08729443  0.66473470  0.99931609     0.03600
H181        H  0.08431230  0.75746878  0.04300747     0.08700
H182        H  0.09544947  0.63174861  0.98694634     0.07600
N183        N  0.02494930  0.16989150  0.91839329    -0.26800
N184        N  0.01473170  0.13328451  0.91177615    -0.34700
C185        C  0.99620596  0.14162518  0.89643239     0.01500
C186        C  0.99429351  0.18559554  0.89379076     0.07600
C187        C  0.01262080  0.20273491  0.90805664    -0.05500
H188        H  0.98476353  0.11744128  0.88814074     0.08200
H189        H  0.01748697  0.23626460  0.90964803     0.09400
Cu190      Cu  0.02440129  0.07357518  0.92530494     0.44200
Cu191      Cu  0.05680002  0.17294195  0.93862277     0.42000
Cu192      Cu  0.06485997  0.07436093  0.97878362     0.43900
N193        N  0.03174058  0.01929054  0.94799955    -0.34200
N194        N  0.04530902  0.01995688  0.96951143    -0.28400
C195        C  0.04689666  0.97983924  0.97979591    -0.04500
C196        C  0.03393155  0.95272241  0.96360342     0.07700
C197        C  0.02453898  0.97877728  0.94366573     0.01500
H198        H  0.05794446  0.97078547  0.99636105     0.09100
H199        H  0.01373026  0.96899400  0.92678400     0.08200
N200        N  0.09125039  0.12734202  0.97306395    -0.35600
N201        N  0.08918919  0.16289816  0.95749337    -0.27800
C202        C  0.11160077  0.18891542  0.95535645    -0.03100
C203        C  0.12840849  0.16867107  0.97044818     0.05500
C204        C  0.11482028  0.12982731  0.98140750     0.03600
H205        H  0.11547331  0.22000104  0.94347037     0.08700
H206        H  0.12196955  0.10463895  0.99378106     0.07600
N207        N  0.19171811  0.18784936  0.99175993    -0.26800
N208        N  0.19355641  0.22232728  0.97295019    -0.34700
C209        C  0.17136653  0.22102115  0.96187986     0.01500
C210        C  0.15515408  0.18402530  0.97437804     0.07600
C211        C  0.16881502  0.16392770  0.99299034    -0.05500
H212        H  0.16724998  0.24522616  0.94613590     0.08200
H213        H  0.16219368  0.13438762  0.00724902     0.09400
Cu214      Cu  0.22647954  0.26921867  0.96328398     0.44200
Cu215      Cu  0.21765442  0.17354475  0.01821564     0.42000
Cu216      Cu  0.28332636  0.23365438  0.99196859     0.43900
N217        N  0.26509683  0.30445552  0.95630535    -0.34200
N218        N  0.28718413  0.28821344  0.96337294    -0.28400
C219        C  0.30637630  0.31896265  0.96172169    -0.04500
C220        C  0.29567101  0.35733600  0.95451874     0.07700
C221        C  0.26961386  0.34676157  0.95062566     0.01500
H222        H  0.32346062  0.31539841  0.97153280     0.09100
H223        H  0.25263668  0.36937347  0.94926675     0.08200
N224        N  0.26865354  0.19323827  0.03580734    -0.35600
N225        N  0.24378170  0.17019992  0.04575621    -0.27800
C226        C  0.23738698  0.15096205  0.07767925    -0.03100
C227        C  0.25924255  0.16301321  0.08847050     0.05500
C228        C  0.27869551  0.18984553  0.06131583     0.03600
H229        H  0.21722207  0.13187904  0.09308312     0.08700
H230        H  0.29769080  0.20731652  0.06113375     0.07600
N231        N  0.29787018  0.18946930  0.25057873    -0.26800
N232        N  0.28598338  0.16868835  0.28200521    -0.34700
C233        C  0.29972441  0.18054639  0.30259896     0.01500
C234        C  0.32086792  0.21094109  0.28357213     0.07600
C235        C  0.31906007  0.21621181  0.25078942    -0.05500
H236        H  0.29361446  0.16941099  0.33026056     0.08200
H237        H  0.33215016  0.23769709  0.22879307     0.09400
Cu238      Cu  0.24886583  0.12969771  0.29781609     0.44200
Cu239      Cu  0.28435780  0.17837863  0.20956619     0.42000
Cu240      Cu  0.22434556  0.09847082  0.22985861     0.43900
N241        N  0.20903250  0.09688098  0.31143627    -0.34200
N242        N  0.20070250  0.08301035  0.28628248    -0.28400
C243        C  0.17353276  0.06291129  0.30467023    -0.04500
C244        C  0.16430448  0.06534096  0.34316845     0.07700
C245        C  0.18716048  0.08708927  0.34654025     0.01500
H246        H  0.16079424  0.04928551  0.29134122     0.09100
H247        H  0.18786198  0.09527888  0.37255105     0.08200
N248        N  0.24681524  0.12945392  0.17974642    -0.35600
N249        N  0.26818727  0.15821634  0.17263515    -0.27800
C250        C  0.27650851  0.17349093  0.13858271    -0.03100
C251        C  0.25939854  0.15374446  0.12374758     0.05500
C252        C  0.24079689  0.12605374  0.15053580     0.03600
H253        H  0.29303980  0.19820795  0.12619221     0.08700
H254        H  0.22356154  0.10571860  0.14941010     0.07600
N255        N  0.29336800  0.43896051  0.95902618    -0.03000
C256        C  0.29225006  0.46855525  0.98600909    -0.00400
C257        C  0.29942105  0.44890797  0.01097322    -0.23300
C258        C  0.30441767  0.40553769  0.99982561    -0.23500
C259        C  0.30022048  0.40015323  0.96827051    -0.00500
H260        H  0.29860136  0.46400513  0.03632584     0.13300
H261        H  0.30816120  0.38041115  0.01510733     0.13300
N262        N  0.12964557  0.00731233  0.37799874    -0.03000
C263        C  0.13575068  0.04941733  0.37462236    -0.00400
C264        C  0.11469529  0.07438635  0.40777011    -0.23300
C265        C  0.09475194  0.04650366  0.43271696    -0.23500
C266        C  0.10436282  0.00531382  0.41390886    -0.00500
H267        H  0.11503641  0.10865289  0.41396117     0.13300
H268        H  0.07699474  0.05534490  0.46236594     0.13300
N269        N  0.15497749  0.68104817  0.05276736    -0.26800
N270        N  0.16042636  0.64233227  0.03454793    -0.34700
C271        C  0.13941114  0.63784711  0.02211276     0.01500
C272        C  0.11988071  0.67576287  0.03319568     0.07600
C273        C  0.13035810  0.70233589  0.05264613    -0.05500
H274        H  0.13936147  0.60995032  0.00485601     0.08200
H275        H  0.12167870  0.73538107  0.06447746     0.09400
Cu276      Cu  0.19838796  0.60053885  0.02470287     0.44200
Cu277      Cu  0.18274505  0.70436874  0.07420441     0.42000
Cu278      Cu  0.25357438  0.63867298  0.05560428     0.43900
N279        N  0.24012789  0.56659808  0.01317619    -0.34200
N280        N  0.26092285  0.58005698  0.02295939    -0.28400
C281        C  0.28433328  0.54819490  0.01199336    -0.04500
C282        C  0.27805043  0.51351975  0.99407963     0.07700
C283        C  0.24941546  0.52618741  0.99641066     0.01500
H284        H  0.30339048  0.54905482  0.01871907     0.09100
H285        H  0.23455895  0.50613429  0.99012411     0.08200
N286        N  0.23700609  0.69704063  0.09053904    -0.35600
N287        N  0.21130550  0.72079218  0.09666458    -0.27800
C288        C  0.20551105  0.75467173  0.12202753    -0.03100
C289        C  0.22854064  0.75225816  0.13270271     0.05500
C290        C  0.24822424  0.71540273  0.11213318     0.03600
H291        H  0.18520034  0.77823267  0.13306057     0.08700
H292        H  0.26845085  0.70199877  0.11384794     0.07600
N293        N  0.27652217  0.80818121  0.28040892    -0.26800
N294        N  0.26773004  0.84077122  0.30686993    -0.34700
C295        C  0.27752471  0.83064619  0.33164810     0.01500
C296        C  0.29272368  0.78938465  0.32032326     0.07600
C297        C  0.29170339  0.77614944  0.28773786    -0.05500
H298        H  0.27188699  0.85040952  0.35748388     0.08200
H299        H  0.30002166  0.74487048  0.27155375     0.09400
Cu300      Cu  0.23649974  0.89179116  0.31212447     0.44200
Cu301      Cu  0.26301594  0.80646874  0.23951340     0.42000
Cu302      Cu  0.19383069  0.87595535  0.25820347     0.43900
N303        N  0.19557944  0.92825663  0.32300162    -0.34200
N304        N  0.17881189  0.92155918  0.30551332    -0.28400
C305        C  0.15185358  0.94844770  0.32317411    -0.04500
C306        C  0.15197512  0.97237189  0.35307105     0.07700
C307        C  0.18017758  0.95961978  0.35165435     0.01500
H308        H  0.13384720  0.95061760  0.31470654     0.09100
H309        H  0.18851860  0.97148605  0.37063556     0.08200
N310        N  0.21670886  0.82782023  0.21227981    -0.35600
N311        N  0.24240994  0.80368335  0.20563973    -0.27800
C312        C  0.25100873  0.77452086  0.17573535    -0.03100
C313        C  0.22973155  0.78012316  0.16267443     0.05500
C314        C  0.20827423  0.81431108  0.18636425     0.03600
H315        H  0.27055153  0.74982880  0.16541066     0.08700
H316        H  0.18748456  0.82736026  0.18566479     0.07600
N317        N  0.84904690  0.73988280  0.46104681    -0.26800
N318        N  0.85359841  0.70207465  0.47184769    -0.34700
C319        C  0.86300171  0.70843640  0.49786321     0.01500
C320        C  0.86486439  0.75232950  0.50319582     0.07600
C321        C  0.85601224  0.77139258  0.47932672    -0.05500
H322        H  0.86957240  0.68283859  0.51042941     0.08200
H323        H  0.85517400  0.80543274  0.47507865     0.09400
Cu324      Cu  0.85032012  0.64359797  0.44752203     0.44200
Cu325      Cu  0.83435324  0.74587639  0.42140198     0.42000
Cu326      Cu  0.82886008  0.64571843  0.37334798     0.43900
N327        N  0.84876879  0.58865228  0.41737383    -0.34200
N328        N  0.84079953  0.58889763  0.39035999    -0.28400
C329        C  0.84270187  0.54778942  0.37638307    -0.04500
C330        C  0.85248689  0.52064310  0.39546965     0.07700
C331        C  0.85608397  0.54768776  0.42119647     0.01500
H332        H  0.83771857  0.53845099  0.35372584     0.09100
H333        H  0.86369714  0.53840371  0.44110423     0.08200
N334        N  0.81862162  0.70777642  0.36283496    -0.35600
N335        N  0.81989366  0.74364548  0.38115635    -0.27800
C336        C  0.81091155  0.77797774  0.36884664    -0.03100
C337        C  0.80404485  0.76317997  0.34107780     0.05500
C338        C  0.80918724  0.71857283  0.33785278     0.03600
H339        H  0.80974277  0.81126141  0.37919330     0.08700
H340        H  0.80578193  0.69562326  0.31926110     0.07600
N341        N  0.87185471  0.40553323  0.39397703    -0.26800
N342        N  0.86274891  0.40483476  0.36793909    -0.34700
C343        C  0.85443595  0.44552607  0.36445440     0.01500
C344        C  0.85853309  0.47320274  0.38944805     0.07600
C345        C  0.86960724  0.44678171  0.40768990    -0.05500
H346        H  0.84588857  0.45420675  0.34526857     0.08200
H347        H  0.87561331  0.45674347  0.42934388     0.09400
Cu348      Cu  0.86096884  0.34873779  0.33904989     0.44200
Cu349      Cu  0.88701617  0.35048317  0.40981142     0.42000
Cu350      Cu  0.88389996  0.24894971  0.36443596     0.43900
N351        N  0.85590918  0.28806353  0.31968902    -0.34200
N352        N  0.86283038  0.25176967  0.33069273    -0.28400
C353        C  0.85256042  0.21855012  0.31808594    -0.04500
C354        C  0.83916125  0.23463975  0.29752631     0.07700
C355        C  0.84168996  0.27876726  0.29897644     0.01500
H356        H  0.85381239  0.18536078  0.32449658     0.09100
H357        H  0.83180345  0.30262595  0.28831091     0.08200
N358        N  0.90285270  0.25403222  0.40042023    -0.35600
N359        N  0.90295493  0.29094601  0.41830531    -0.27800
C360        C  0.91522431  0.28288056  0.44112694    -0.03100
C361        C  0.92356365  0.23890732  0.43691181     0.05500
C362        C  0.91548118  0.22165156  0.41082881     0.03600
H363        H  0.91798901  0.30722930  0.45928600     0.08700
H364        H  0.91779532  0.18792273  0.40089755     0.07600
N365        N  0.94861368  0.19655085  0.50111093    -0.26800
N366        N  0.95911162  0.16380024  0.47437909    -0.34700
C367        C  0.95210953  0.17394631  0.44714857     0.01500
C368        C  0.93685796  0.21517087  0.45711898     0.07600
C369        C  0.93516216  0.22856501  0.49136249    -0.05500
H370        H  0.95759524  0.15281767  0.42207121     0.08200
H371        H  0.92397326  0.25873368  0.50865435     0.09400
Cu372      Cu  0.98228203  0.10676620  0.47644298     0.44200
Cu373      Cu  0.95022054  0.19536788  0.55140668     0.42000
Cu374      Cu  0.98208994  0.09583746  0.56592839     0.43900
N375        N  0.00467713  0.05404201  0.48608045    -0.34200
N376        N  0.00352945  0.04950542  0.51924949    -0.28400
C377        C  0.02166615  0.01364148  0.51579549    -0.04500
C378        C  0.03506316  0.99511099  0.47863217     0.07700
C379        C  0.02401346  0.02145681  0.46038988     0.01500
H380        H  0.52676576  0.00378654  0.53768616     0.09100
H381        H  0.03088605  0.01857930  0.43034463     0.08200
N382        N  0.96316838  0.14897797  0.60648683    -0.35600
N383        N  0.95147246  0.18542813  0.60101140    -0.28600
C384        C  0.94119068  0.21351088  0.63213893    -0.03100
C385        C  0.94684992  0.19390218  0.65843615     0.05500
C386        C  0.96085183  0.15303801  0.64123607     0.03600
H387        H  0.93059622  0.24588888  0.63521358     0.08700
H388        H  0.96879426  0.12808722  0.65304812     0.07600
N389        N  0.93785460  0.22251454  0.75229397    -0.26800
N390        N  0.92330716  0.25728471  0.74858573    -0.34700
C391        C  0.92403466  0.25251203  0.71473516     0.01500
C392        C  0.93981078  0.21269937  0.69641788     0.07600
C393        C  0.94822038  0.19457304  0.72108691    -0.05500
H394        H  0.91398223  0.27631020  0.70421071     0.08200
H395        H  0.46139999  0.16374630  0.71645628     0.09400
Cu396      Cu  0.90385429  0.30881227  0.79059269     0.44200
Cu397      Cu  0.44456279  0.21712959  0.79866012     0.42000
Cu398      Cu  0.42410861  0.31271957  0.86674909     0.43900
N399        N  0.88459760  0.35498631  0.83725593    -0.34200
N400        N  0.89174084  0.35707876  0.86506226    -0.28400
C401        C  0.87435787  0.39088929  0.89068657    -0.04500
C402        C  0.85552552  0.41042098  0.87804615     0.07700
C403        C  0.86263855  0.38723959  0.84423284     0.01500
H404        H  0.87561537  0.40054481  0.91608060     0.09100
H405        H  0.85274275  0.39356047  0.82590337     0.08200
N406        N  0.45094624  0.25767718  0.86431835    -0.35600
N407        N  0.45612635  0.22234929  0.84151508    -0.27800
C408        C  0.47203471  0.19147700  0.84892369    -0.03100
C409        C  0.47760112  0.20835318  0.87721737     0.05500
C410        C  0.46409925  0.25040197  0.88633660     0.03600
H411        H  0.47965256  0.15943462  0.83409497     0.08700
H412        H  0.46319513  0.27359465  0.90794126     0.07600
N413        N  0.56082243  0.96168891  0.46103862    -0.03000
C414        C  0.06021013  0.92222152  0.47392923    -0.00400
C415        C  0.59006293  0.90036388  0.45414335    -0.23300
C416        C  0.60987798  0.92747840  0.42800432    -0.23500
C417        C  0.59143723  0.96520690  0.43278374    -0.00500
H418        H  0.59672886  0.86820601  0.45821281     0.13300
H419        H  0.63525688  0.92059609  0.40931213     0.13300
N420        N  0.83470897  0.44924936  0.89379797    -0.03000
C421        C  0.83716312  0.48091178  0.87098565    -0.00400
C422        C  0.80736276  0.49931227  0.88091303    -0.23300
C423        C  0.78581707  0.47891482  0.91203094    -0.23500
C424        C  0.80326955  0.44918621  0.92032142    -0.00500
H425        H  0.80198593  0.52647672  0.86876333     0.13300
H426        H  0.76040989  0.48722801  0.92817605     0.13300
N427        N  0.89801815  0.77989307  0.56381480    -0.26800
N428        N  0.90777635  0.81153943  0.54083694    -0.34700
C429        C  0.89530254  0.80867395  0.51751452     0.01500
C430        C  0.87731586  0.77310318  0.52604833     0.07600
C431        C  0.87949050  0.75573221  0.55553970    -0.05500
H432        H  0.90141105  0.82831481  0.49375943     0.08200
H433        H  0.87024997  0.72595243  0.56816950     0.09400
Cu434      Cu  0.94341423  0.84981567  0.53647055     0.44200
Cu435      Cu  0.91517388  0.76518109  0.59974997     0.42000
Cu436      Cu  0.98587041  0.81370084  0.58574499     0.43900
N437        N  0.98526963  0.87392508  0.52928350    -0.34200
N438        N  0.00129304  0.85945392  0.54572396    -0.28400
C439        C  0.02979402  0.87652128  0.53002467    -0.04500
C440        C  0.03151681  0.90349701  0.50298713     0.07700
C441        C  0.00294558  0.90116373  0.50323724     0.01500
H442        H  0.04848680  0.86823730  0.53647736     0.09100
H443        H  0.99663299  0.91520469  0.48364082     0.08200
N444        N  0.96583064  0.76521844  0.62224400    -0.35600
N445        N  0.93966780  0.74782792  0.62719361    -0.27800
C446        C  0.93308650  0.71618214  0.65083219    -0.03100
C447        C  0.95619235  0.71344504  0.66140207     0.05500
C448        C  0.97660334  0.74506953  0.64289840     0.03600
H449        H  0.91315833  0.69627826  0.65919952     0.08700
H450        H  0.99791276  0.75242899  0.64384392     0.07600
N451        N  0.49871322  0.62354812  0.80330658    -0.26800
N452        N  0.48593099  0.59372609  0.82780728    -0.34700
C453        C  0.49315813  0.60014749  0.85595692     0.01500
C454        C  0.51076853  0.63609567  0.84889287     0.07600
C455        C  0.51381039  0.64992963  0.81537812    -0.05500
H456        H  0.48376033  0.58262259  0.88141493     0.08200
H457        H  0.52437967  0.67884925  0.80205816     0.09400
Cu458      Cu  0.45320055  0.55280747  0.82638288     0.44200
Cu459      Cu  0.49044146  0.63437031  0.75881005     0.42000
Cu460      Cu  0.92302504  0.58556823  0.76417082     0.43900
N461        N  0.91401739  0.52747824  0.82580847    -0.34200
N462        N  0.90227938  0.54112436  0.80439703    -0.28400
C463        C  0.87397252  0.52452826  0.81544562    -0.04500
C464        C  0.86773844  0.49865798  0.84486521     0.07700
C465        C  0.89367031  0.50110613  0.85058061     0.01500
H466        H  0.85831149  0.53266026  0.80431829     0.09100
H467        H  0.89610255  0.48792640  0.87341978     0.08200
N468        N  0.94623863  0.63211268  0.72715618    -0.35600
N469        N  0.97153228  0.64986757  0.72461721    -0.27800
C470        C  0.97965622  0.68095285  0.70006506    -0.03100
C471        C  0.95827122  0.68276623  0.68670165     0.05500
C472        C  0.93751302  0.65129215  0.70433451     0.03600
H473        H  0.49883256  0.70174435  0.69369345     0.08700
H474        H  0.91693258  0.64377302  0.70180639     0.07600
N475        N  0.53679660  0.83892291  0.97900501    -0.26800
N476        N  0.53052131  0.83657058  0.95061727    -0.34700
C477        C  0.52754933  0.87685376  0.94140806     0.01500
C478        C  0.53262101  0.90566085  0.96497162     0.07600
C479        C  0.53847631  0.88050390  0.98838451    -0.05500
H480        H  0.52318780  0.88443559  0.91841627     0.08200
H481        H  0.54427195  0.89142121  0.01001419     0.09400
Cu482      Cu  0.52894749  0.77774691  0.92489462     0.44200
Cu483      Cu  0.54578133  0.78509582  0.00064648     0.42000
Cu484      Cu  0.55059831  0.67849937  0.95535927     0.43900
N485        N  0.52711139  0.71536839  0.90520711    -0.34200
N486        N  0.53335014  0.67937147  0.91728575    -0.28400
C487        C  0.52805002  0.64518114  0.89965003    -0.04500
C488        C  0.51866197  0.66059779  0.87489068     0.07700
C489        C  0.51840745  0.70505288  0.87909287     0.01500
H490        H  0.53154242  0.61169457  0.90383648     0.09100
H491        H  0.51186316  0.72835380  0.86464876     0.08200
N492        N  0.56850805  0.69116838  0.99200737    -0.35600
N493        N  0.56521020  0.72989229  0.00945028    -0.27800
C494        C  0.58142927  0.72922221  0.02840576    -0.03100
C495        C  0.59602095  0.68827522  0.02240986     0.05500
C496        C  0.58729445  0.66473469  0.99931608     0.03600
H497        H  0.58431243  0.75746859  0.04300733     0.08700
H498        H  0.59544944  0.63174870  0.98694652     0.07600
N499        N  0.52494927  0.16989148  0.91839335    -0.26800
N500        N  0.51473171  0.13328451  0.91177617    -0.34700
C501        C  0.49620597  0.14162522  0.89643242     0.01500
C502        C  0.49429346  0.18559559  0.89379084     0.07600
C503        C  0.51262077  0.20273500  0.90805673    -0.05500
H504        H  0.48476356  0.11744129  0.88814075     0.08200
H505        H  0.51748688  0.23626452  0.90964820     0.09400
Cu506      Cu  0.52440132  0.07357522  0.92530495     0.44200
Cu507      Cu  0.55680003  0.17294197  0.93862276     0.42000
Cu508      Cu  0.56485990  0.07436100  0.97878368     0.43900
N509        N  0.53174053  0.01929076  0.94799966    -0.34200
N510        N  0.54530891  0.01995703  0.96951153    -0.28400
C511        C  0.54689664  0.97983921  0.97979610    -0.04500
C512        C  0.53393153  0.95272244  0.96360350     0.07700
C513        C  0.52453887  0.97877730  0.94366563     0.01500
H514        H  0.55794422  0.97078541  0.99636097     0.09100
H515        H  0.51373042  0.96899415  0.92678424     0.08200
N516        N  0.59125039  0.12734204  0.97306399    -0.35600
N517        N  0.58918920  0.16289819  0.95749338    -0.27800
C518        C  0.61160076  0.18891542  0.95535647    -0.03100
C519        C  0.62840845  0.16867108  0.97044825     0.05500
C520        C  0.61482021  0.12982744  0.98140749     0.03600
H521        H  0.61547329  0.22000110  0.94347037     0.08700
H522        H  0.62196949  0.10463882  0.99378122     0.07600
N523        N  0.69171808  0.18784938  0.99176000    -0.26800
N524        N  0.69355641  0.22232728  0.97295023    -0.34700
C525        C  0.67136652  0.22102120  0.96187987     0.01500
C526        C  0.65515406  0.18402531  0.97437808     0.07600
C527        C  0.66881498  0.16392776  0.99299041    -0.05500
H528        H  0.66725000  0.24522611  0.94613591     0.08200
H529        H  0.66219362  0.13438770  0.00724910     0.09400
Cu530      Cu  0.72647949  0.26921880  0.96328402     0.44200
Cu531      Cu  0.71765427  0.17354479  0.01821580     0.42000
Cu532      Cu  0.78332621  0.23365443  0.99196864     0.43900
N533        N  0.76509682  0.30445554  0.95630537    -0.34200
N534        N  0.78718409  0.28821345  0.96337295    -0.28400
C535        C  0.80637631  0.31896266  0.96172168    -0.04500
C536        C  0.79567107  0.35733606  0.95451871     0.07700
C537        C  0.76961381  0.34676176  0.95062562     0.01500
H538        H  0.82346061  0.31539843  0.97153276     0.09100
H539        H  0.75263688  0.36937346  0.94926677     0.08200
N540        N  0.76865348  0.19323845  0.03580738    -0.35600
N541        N  0.74378167  0.17020011  0.04575625    -0.27800
C542        C  0.73738677  0.15096196  0.07767944    -0.03100
C543        C  0.75924259  0.16301330  0.08847051     0.05500
C544        C  0.77869545  0.18984563  0.06131585     0.03600
H545        H  0.71722225  0.13187926  0.09308306     0.08700
H546        H  0.79769078  0.20731659  0.06113375     0.07600
N547        N  0.79787018  0.18946917  0.25057875    -0.26800
N548        N  0.78598345  0.16868819  0.28200518    -0.34700
C549        C  0.79972447  0.18054629  0.30259894     0.01500
C550        C  0.82086791  0.21094107  0.28357216     0.07600
C551        C  0.81906012  0.21621187  0.25078934    -0.05500
H552        H  0.79361454  0.16941087  0.33026054     0.08200
H553        H  0.83214999  0.23769701  0.22879331     0.09400
Cu554      Cu  0.74886588  0.12969761  0.29781603     0.44200
Cu555      Cu  0.78435779  0.17837855  0.20956617     0.42000
Cu556      Cu  0.72434560  0.09847070  0.22985852     0.43900
N557        N  0.70903259  0.09688090  0.31143628    -0.34200
N558        N  0.70070259  0.08301026  0.28628246    -0.28400
C559        C  0.67353276  0.06291118  0.30467015    -0.04500
C560        C  0.66430460  0.06534093  0.34316845     0.07700
C561        C  0.68716057  0.08708920  0.34654004     0.01500
H562        H  0.66079438  0.04928544  0.29134128     0.09100
H563        H  0.68786217  0.09527886  0.37255122     0.08200
N564        N  0.74681529  0.12945393  0.17974629    -0.35600
N565        N  0.76818730  0.15821649  0.17263504    -0.27800
C566        C  0.77650830  0.17349076  0.13858287    -0.03100
C567        C  0.75939857  0.15374460  0.12374759     0.05500
C568        C  0.74079695  0.12605376  0.15053575     0.03600
H569        H  0.79303996  0.19820856  0.12619219     0.08700
H570        H  0.72356150  0.10571837  0.14941012     0.07600
N571        N  0.79336801  0.43896061  0.95902623    -0.03000
C572        C  0.79225017  0.46855538  0.98600908    -0.00400
C573        C  0.79942122  0.44890805  0.01097312    -0.23300
C574        C  0.80441778  0.40553775  0.99982563    -0.23500
C575        C  0.80022047  0.40015339  0.96827055    -0.00500
H576        H  0.79860165  0.46400516  0.03632600     0.13300
H577        H  0.80816131  0.38041131  0.01510708     0.13300
N578        N  0.62964563  0.00731228  0.37799870    -0.03000
C579        C  0.63575075  0.04941728  0.37462225    -0.00400
C580        C  0.61469539  0.07438636  0.40777004    -0.23300
C581        C  0.59475207  0.04650367  0.43271693    -0.23500
C582        C  0.60436291  0.00531385  0.41390889    -0.00500
H583        H  0.61503646  0.10865277  0.41396113     0.13300
H584        H  0.57699489  0.05534502  0.46236590     0.13300
N585        N  0.65497758  0.68104817  0.05276734    -0.26800
N586        N  0.66042646  0.64233230  0.03454789    -0.34700
C587        C  0.63941121  0.63784711  0.02211274     0.01500
C588        C  0.61988075  0.67576285  0.03319568     0.07600
C589        C  0.63035814  0.70233593  0.05264617    -0.05500
H590        H  0.63936159  0.60995031  0.00485596     0.08200
H591        H  0.62167880  0.73538098  0.06447748     0.09400
Cu592      Cu  0.69838815  0.60053889  0.02470267     0.44200
Cu593      Cu  0.68274513  0.70436888  0.07420436     0.42000
Cu594      Cu  0.75357445  0.63867302  0.05560430     0.43900
N595        N  0.74012798  0.56659791  0.01317605    -0.34200
N596        N  0.76092293  0.58005687  0.02295932    -0.28400
C597        C  0.78433332  0.54819484  0.01199333    -0.04500
C598        C  0.77805040  0.51351969  0.99407966     0.07700
C599        C  0.74941571  0.52618761  0.99641072     0.01500
H600        H  0.80339052  0.54905479  0.01871912     0.09100
H601        H  0.73455872  0.50613398  0.99012393     0.08200
N602        N  0.73700615  0.69704067  0.09053904    -0.35600
N603        N  0.71130557  0.72079224  0.09666457    -0.27800
C604        C  0.70551113  0.75467177  0.12202752    -0.03100
C605        C  0.72854072  0.75225817  0.13270271     0.05500
C606        C  0.74822431  0.71540274  0.11213319     0.03600
H607        H  0.68520044  0.77823274  0.13306056     0.08700
H608        H  0.76845091  0.70199877  0.11384797     0.07600
N609        N  0.77652225  0.80818112  0.28040896    -0.26800
N610        N  0.76773012  0.84077118  0.30686992    -0.34700
C611        C  0.77752475  0.83064627  0.33164822     0.01500
C612        C  0.79272369  0.78938463  0.32032335     0.07600
C613        C  0.79170341  0.77614942  0.28773797    -0.05500
H614        H  0.77188705  0.85040950  0.35748386     0.08200
H615        H  0.80002165  0.74487032  0.27155391     0.09400
Cu616      Cu  0.73649971  0.89179102  0.31212449     0.44200
Cu617      Cu  0.76301602  0.80646870  0.23951345     0.42000
Cu618      Cu  0.69383071  0.87595530  0.25820348     0.43900
N619        N  0.69557942  0.92825645  0.32300160    -0.34200
N620        N  0.67881188  0.92155906  0.30551331    -0.28400
C621        C  0.65185358  0.94844766  0.32317409    -0.04500
C622        C  0.65197514  0.97237180  0.35307100     0.07700
C623        C  0.68017758  0.95961967  0.35165439     0.01500
H624        H  0.63384719  0.95061769  0.31470657     0.09100
H625        H  0.68851850  0.97148594  0.37063546     0.08200
N626        N  0.71670888  0.82782017  0.21227984    -0.35600
N627        N  0.74240999  0.80368332  0.20563976    -0.27800
C628        C  0.75100880  0.77452088  0.17573536    -0.03100
C629        C  0.72973160  0.78012316  0.16267444     0.05500
C630        C  0.70827430  0.81431100  0.18636431     0.03600
H631        H  0.77055164  0.74982881  0.16541066     0.08700
H632        H  0.68748453  0.82736029  0.18566486     0.07600
loop_ 
_geom_bond_atom_site_label_1 
_geom_bond_atom_site_label_2 
_geom_bond_distance 
_geom_bond_site_symmetry_2 
_ccdc_geom_bond_type 
N1            N2   1.321       .  A
N1            C5   1.345       .  A
N1           Cu9   2.058       .  S
N2            C3   1.342       .  A
N2           Cu8   2.066       .  S
C3            C4   1.382       .  A
C3            H6   1.082       .  S
C4            C5   1.381       .  A
C4          C114   1.464       .  S
C5            H7   1.082       .  S
Cu8          N11   2.066       .  S
Cu9          N19   2.058       .  S
Cu10         N12   2.087       .  S
Cu10         N18   2.087       .  S
N11          N12   1.322       .  A
N11          C15   1.343       .  A
N12          C13   1.348       .  A
C13          C14   1.387       .  A
C13          H16   1.082       .  S
C14          C15   1.381       .  A
C14          C28   1.473       .  S
C15          H17   1.082       .  S
N18          N19   1.323       .  A
N18          C22   1.346       .  A
N19          C20   1.343       .  A
C20          C21   1.378       .  A
C20          H23   1.082       .  S
C21          C22   1.385       .  A
C21         C296   1.466       .  S
C22          H24   1.082       .  S
N25          N26   1.323       .  A
N25          C29   1.346       .  A
N25         Cu33   2.084       .  S
N26          C27   1.346       .  A
N26         Cu32   2.071       .  S
C27          C28   1.382       .  A
C27          H30   1.082       .  S
C28          C29   1.385       .  A
C29          H31   1.082       .  S
Cu32         N35   2.070       .  S
Cu33         N43   2.083       .  S
Cu34         N36   2.066       .  S
Cu34         N42   2.066       .  S
N35          N36   1.322       .  A
N35          C39   1.346       .  A
N36          C37   1.343       .  A
C37          C38   1.380       .  A
C37          H40   1.082       .  S
C38          C39   1.381       .  A
C38         C234   1.463       .  S
C39          H41   1.082       .  S
N42          N43   1.322       .  A
N42          C46   1.345       .  A
N43          C44   1.346       .  A
C44          C45   1.385       .  A
C44          H47   1.082       .  S
C45          C46   1.381       .  A
C45          C52   1.471       .  S
C46          H48   1.082       .  S
N49          N50   1.323       .  A
N49          C53   1.344       .  A
N49         Cu57   2.068       .  S
N50          C51   1.347       .  A
N50         Cu56   2.084       .  S
C51          C52   1.385       .  A
C51          H54   1.082       .  S
C52          C53   1.381       .  A
C53          H55   1.082       .  S
Cu56         N59   2.084       .  S
Cu57         N67   2.068       .  S
Cu58         N60   2.082       .  S
Cu58         N66   2.082       .  S
N59          N60   1.325       .  A
N59          C63   1.349       .  A
N60          C61   1.346       .  A
C61          C62   1.381   1_545  A
C61         H380   1.082       .  S
C62          C63   1.383   1_565  A
C62         N413   1.439       .  S
C63          H65   1.082       .  S
H64         C377   1.082       .  S
N66          N67   1.322       .  A
N66          C70   1.346       .  A
N67          C68   1.345       .  A
C68          C69   1.382       .  A
C68          H71   1.082       .  S
C69          C70   1.385       .  A
C69          C76   1.473       .  S
C70          H72   1.082       .  S
N73          N74   1.320       .  A
N73          C77   1.344       .  A
N73        Cu397   2.062       .  S
N74          C75   1.346       .  A
N74         Cu80   2.078       .  S
C75          C76   1.386       .  A
C75          H78   1.082       .  S
C76          C77   1.382       .  A
C77         H395   1.082       .  S
H79         C393   1.082       .  S
Cu80         N83   2.079       .  S
Cu81         N91   2.062       .  S
Cu81        N389   2.062       .  S
Cu82         N90   2.071       .  S
Cu82        N400   2.071       .  S
N83          N84   1.325       .  A
N83          C87   1.340       .  A
N84          C85   1.351       .  A
N84        Cu398   2.071       .  S
C85          C86   1.380       .  A
C85          H88   1.082       .  S
C86          C87   1.379       .  A
C86         N104   1.433       .  S
C87          H89   1.082       .  S
N90          N91   1.323       .  A
N90          C94   1.346       .  A
N91          C92   1.341       .  A
C92          C93   1.377       .  A
C92          H95   1.082       .  S
C93          C94   1.381       .  A
C93         C186   1.461       .  S
C94          H96   1.082       .  S
N97         C101   1.360       .  A
N97         C414   1.352       .  A
N97         C378   1.439       .  S
C98         N413   1.352       .  A
C98         C415   1.378       .  A
C98         C124   1.468       .  S
C99         C100   1.376       .  A
C99         C414   1.378       .  A
C99         H102   1.082       .  S
C100        C101   1.387       .  A
C100        H103   1.078       .  S
C101        C266   1.487   1_565  S
N104        C108   1.356       .  A
N104        C105   1.350       .  A
C105        C106   1.377       .  A
C105        C148   1.475       .  S
C106        C107   1.378       .  A
C106        H109   1.082       .  S
C107        C108   1.387       .  A
C107        H110   1.077       .  S
C108        N255   1.444       .  S
N111        N112   1.321       .  A
N111        C115   1.341       .  A
N111       Cu119   2.055       .  S
N112        C113   1.346       .  A
N112       Cu118   2.072       .  S
C113        C114   1.383       .  A
C113        H116   1.082       .  S
C114        C115   1.379       .  A
C115        H117   1.082       .  S
Cu118       N121   2.073       .  S
Cu119       N129   2.055       .  S
Cu120       N122   2.076       .  S
Cu120       N128   2.075       .  S
N121        N122   1.324       .  A
N121        C125   1.345       .  A
N122        C123   1.344       .  A
C123        C124   1.381       .  A
C123        H126   1.082       .  S
C124        C125   1.380       .  A
C125        H127   1.082       .  S
N128        N129   1.321       .  A
N128        C132   1.347       .  A
N129        C130   1.341       .  A
C130        C131   1.379       .  A
C130        H133   1.082       .  S
C131        C132   1.385       .  A
C131        C155   1.467       .  S
C132        H134   1.082       .  S
N135        N136   1.323       .  A
N135        C139   1.340   1_655  A
N135       Cu143   2.061       .  S
N136        C137   1.350       .  A
N136       Cu142   2.088       .  S
C137        C138   1.386   1_655  A
C137        H140   1.082       .  S
C138        C139   1.378       .  A
C138        C172   1.468       .  S
C139        H141   1.082       .  S
Cu142       N461   2.089       .  S
Cu143       N469   2.061       .  S
Cu144       N146   2.067       .  S
Cu144       N152   2.066       .  S
N145        N146   1.323       .  A
N145        C149   1.345       .  A
N145       Cu458   2.089       .  S
N146        C147   1.346       .  A
C147        C148   1.381       .  A
C147        H150   1.082       .  S
C148        C149   1.386       .  A
C149        H151   1.082       .  S
N152        N153   1.320       .  A
N152        C156   1.342       .  A
N153        C154   1.345       .  A
N153       Cu459   2.061       .  S
C154        C155   1.382       .  A
C154        H473   1.082       .  S
C155        C156   1.382       .  A
C156        H158   1.082       .  S
H157        C470   1.082       .  S
N159        N160   1.320       .  A
N159        C163   1.343       .  A
N159       Cu167   2.053   1_556  S
N160        C161   1.345       .  A
N160       Cu166   2.074       .  S
C161        C162   1.385       .  A
C161        H164   1.082       .  S
C162        C163   1.380       .  A
C162        C196   1.468       .  S
C163        H165   1.082   1_556  S
Cu166       N169   2.075       .  S
Cu167       N177   2.052       .  S
Cu168       N170   2.078       .  S
Cu168       N176   2.077       .  S
N169        N170   1.324       .  A
N169        C173   1.342       .  A
N170        C171   1.349       .  A
C171        C172   1.383       .  A
C171        H174   1.082       .  S
C172        C173   1.380       .  A
C173        H175   1.082       .  S
N176        N177   1.322   1_556  A
N176        C180   1.347       .  A
N177        C178   1.339       .  A
C178        C179   1.377       .  A
C178        H181   1.082       .  S
C179        C180   1.385   1_554  A
C179        C272   1.465       .  S
C180        H182   1.082       .  S
N183        N184   1.323       .  A
N183        C187   1.346       .  A
N183       Cu191   2.071       .  S
N184        C185   1.341   1_455  A
N184       Cu190   2.060       .  S
C185        C186   1.378       .  A
C185        H188   1.082       .  S
C186        C187   1.381   1_655  A
C187        H189   1.082       .  S
Cu190       N193   2.059       .  S
Cu191       N201   2.071       .  S
Cu192       N194   2.072       .  S
Cu192       N200   2.074       .  S
N193        N194   1.321       .  A
N193        C197   1.344   1_545  A
N194        C195   1.344   1_545  A
C195        C196   1.384       .  A
C195        H198   1.082       .  S
C196        C197   1.381       .  A
C197        H199   1.082       .  S
N200        N201   1.322       .  A
N200        C204   1.342       .  A
N201        C202   1.348       .  A
C202        C203   1.383       .  A
C202        H205   1.082       .  S
C203        C204   1.383       .  A
C203        C210   1.472       .  S
C204        H206   1.082       .  S
N207        N208   1.325       .  A
N207        C211   1.339       .  A
N207       Cu215   2.058   1_556  S
N208        C209   1.351       .  A
N208       Cu214   2.105       .  S
C209        C210   1.389       .  A
C209        H212   1.082       .  S
C210        C211   1.377       .  A
C211        H213   1.082   1_556  S
Cu214       N217   2.105       .  S
Cu215       N225   2.056       .  S
Cu216       N218   2.062       .  S
Cu216       N224   2.064   1_556  S
N217        N218   1.322       .  A
N217        C221   1.353       .  A
N218        C219   1.339       .  A
C219        C220   1.381       .  A
C219        H222   1.082       .  S
C220        C221   1.393       .  A
C220        C259   1.479       .  S
C221        H223   1.082       .  S
N224        N225   1.318       .  A
N224        C228   1.343       .  A
N225        C226   1.345       .  A
C226        C227   1.383       .  A
C226        H229   1.082       .  S
C227        C228   1.383       .  A
C227        C251   1.468       .  S
C228        H230   1.082       .  S
N231        N232   1.320       .  A
N231        C235   1.347       .  A
N231       Cu239   2.074       .  S
N232        C233   1.341       .  A
N232       Cu238   2.052       .  S
C233        C234   1.378       .  A
C233        H236   1.082       .  S
C234        C235   1.384       .  A
C235        H237   1.082       .  S
Cu238       N241   2.052       .  S
Cu239       N249   2.076       .  S
Cu240       N242   2.070       .  S
Cu240       N248   2.072       .  S
N241        N242   1.321       .  A
N241        C245   1.340       .  A
N242        C243   1.346       .  A
C243        C244   1.381       .  A
C243        H246   1.082       .  S
C244        C245   1.376       .  A
C244        C263   1.463       .  S
C245        H247   1.082       .  S
N248        N249   1.324       .  A
N248        C252   1.345       .  A
N249        C250   1.343       .  A
C250        C251   1.381       .  A
C250        H253   1.082       .  S
C251        C252   1.382       .  A
C252        H254   1.082       .  S
N255        C259   1.356       .  A
N255        C256   1.364       .  A
C256        C257   1.377   1_556  A
C256        C282   1.476       .  S
C257        C258   1.369   1_554  A
C257        H260   1.082       .  S
C258        C259   1.386       .  A
C258        H261   1.082   1_556  S
N262        C266   1.360       .  A
N262        C263   1.351       .  A
N262        C306   1.436   1_545  S
C263        C264   1.377       .  A
C264        C265   1.373       .  A
C264        H267   1.082       .  S
C265        C266   1.387       .  A
C265        H268   1.080       .  S
N269        N270   1.319       .  A
N269        C273   1.340       .  A
N269       Cu277   2.057       .  S
N270        C271   1.345       .  A
N270       Cu276   2.058       .  S
C271        C272   1.383       .  A
C271        H274   1.082       .  S
C272        C273   1.382       .  A
C273        H275   1.082       .  S
Cu276       N279   2.059       .  S
Cu277       N287   2.056       .  S
Cu278       N280   2.097       .  S
Cu278       N286   2.097       .  S
N279        N280   1.322       .  A
N279        C283   1.340   1_554  A
N280        C281   1.349       .  A
C281        C282   1.390   1_554  A
C281        H284   1.082       .  S
C282        C283   1.379       .  A
C283        H285   1.080       .  S
N286        N287   1.323       .  A
N286        C290   1.347       .  A
N287        C288   1.344       .  A
C288        C289   1.378       .  A
C288        H291   1.082       .  S
C289        C290   1.389       .  A
C289        C313   1.473       .  S
C290        H292   1.082       .  S
N293        N294   1.319       .  A
N293        C297   1.342       .  A
N293       Cu301   2.050       .  S
N294        C295   1.345       .  A
N294       Cu300   2.070       .  S
C295        C296   1.385       .  A
C295        H298   1.082       .  S
C296        C297   1.379       .  A
C297        H299   1.082       .  S
Cu300       N303   2.071       .  S
Cu301       N311   2.050       .  S
Cu302       N304   2.102       .  S
Cu302       N310   2.102       .  S
N303        N304   1.327       .  A
N303        C307   1.343       .  A
N304        C305   1.352       .  A
C305        C306   1.383       .  A
C305        H308   1.082       .  S
C306        C307   1.376       .  A
C307        H309   1.082       .  S
N310        N311   1.322       .  A
N310        C314   1.349       .  A
N311        C312   1.342       .  A
C312        C313   1.377       .  A
C312        H315   1.082       .  S
C313        C314   1.390       .  A
C314        H316   1.082       .  S
N317        N318   1.321       .  A
N317        C321   1.345       .  A
N317       Cu325   2.058       .  S
N318        C319   1.342       .  A
N318       Cu324   2.066       .  S
C319        C320   1.382       .  A
C319        H322   1.082       .  S
C320        C321   1.381       .  A
C320        C430   1.464       .  S
C321        H323   1.082       .  S
Cu324       N327   2.066       .  S
Cu325       N335   2.058       .  S
Cu326       N328   2.086       .  S
Cu326       N334   2.087       .  S
N327        N328   1.322       .  A
N327        C331   1.343       .  A
N328        C329   1.348       .  A
C329        C330   1.387       .  A
C329        H332   1.082       .  S
C330        C331   1.381       .  A
C330        C344   1.473       .  S
C331        H333   1.082       .  S
N334        N335   1.323       .  A
N334        C338   1.346       .  A
N335        C336   1.343       .  A
C336        C337   1.378       .  A
C336        H339   1.082       .  S
C337        C338   1.385       .  A
C337        C612   1.466       .  S
C338        H340   1.082       .  S
N341        N342   1.323       .  A
N341        C345   1.346       .  A
N341       Cu349   2.084       .  S
N342        C343   1.346       .  A
N342       Cu348   2.071       .  S
C343        C344   1.382       .  A
C343        H346   1.082       .  S
C344        C345   1.385       .  A
C345        H347   1.082       .  S
Cu348       N351   2.070       .  S
Cu349       N359   2.083       .  S
Cu350       N352   2.066       .  S
Cu350       N358   2.066       .  S
N351        N352   1.322       .  A
N351        C355   1.345       .  A
N352        C353   1.343       .  A
C353        C354   1.380       .  A
C353        H356   1.082       .  S
C354        C355   1.381       .  A
C354        C550   1.463       .  S
C355        H357   1.082       .  S
N358        N359   1.322       .  A
N358        C362   1.345       .  A
N359        C360   1.346       .  A
C360        C361   1.385       .  A
C360        H363   1.082       .  S
C361        C362   1.381       .  A
C361        C368   1.471       .  S
C362        H364   1.082       .  S
N365        N366   1.323       .  A
N365        C369   1.344       .  A
N365       Cu373   2.068       .  S
N366        C367   1.347       .  A
N366       Cu372   2.084       .  S
C367        C368   1.385       .  A
C367        H370   1.082       .  S
C368        C369   1.381       .  A
C369        H371   1.082       .  S
Cu372       N375   2.084   1_655  S
Cu373       N383   2.068       .  S
Cu374       N376   2.082   1_655  S
Cu374       N382   2.082       .  S
N375        N376   1.325       .  A
N375        C379   1.349       .  A
N376        C377   1.346       .  A
C377        C378   1.381   1_545  A
C378        C379   1.383   1_565  A
C379        H381   1.082       .  S
N382        N383   1.322       .  A
N382        C386   1.346       .  A
N383        C384   1.345       .  A
C384        C385   1.382       .  A
C384        H387   1.082       .  S
C385        C386   1.385       .  A
C385        C392   1.473       .  S
C386        H388   1.082       .  S
N389        N390   1.320       .  A
N389        C393   1.344       .  A
N390        C391   1.346       .  A
N390       Cu396   2.078       .  S
C391        C392   1.386       .  A
C391        H394   1.082       .  S
C392        C393   1.382       .  A
Cu396       N399   2.079       .  S
Cu397       N407   2.062       .  S
Cu398       N406   2.071       .  S
N399        N400   1.325       .  A
N399        C403   1.340       .  A
N400        C401   1.351       .  A
C401        C402   1.380       .  A
C401        H404   1.082       .  S
C402        C403   1.379       .  A
C402        N420   1.433       .  S
C403        H405   1.082       .  S
N406        N407   1.323       .  A
N406        C410   1.346       .  A
N407        C408   1.341       .  A
C408        C409   1.377       .  A
C408        H411   1.082       .  S
C409        C410   1.381       .  A
C409        C502   1.461       .  S
C410        H412   1.082       .  S
N413        C417   1.360       .  A
C414        C440   1.468       .  S
C415        C416   1.376       .  A
C415        H418   1.082       .  S
C416        C417   1.387       .  A
C416        H419   1.078       .  S
C417        C582   1.487   1_565  S
N420        C424   1.356       .  A
N420        C421   1.350       .  A
C421        C422   1.377       .  A
C421        C464   1.475       .  S
C422        C423   1.378       .  A
C422        H425   1.082       .  S
C423        C424   1.387       .  A
C423        H426   1.077       .  S
C424        N571   1.444       .  S
N427        N428   1.321       .  A
N427        C431   1.341       .  A
N427       Cu435   2.055       .  S
N428        C429   1.346       .  A
N428       Cu434   2.072       .  S
C429        C430   1.383       .  A
C429        H432   1.082       .  S
C430        C431   1.379       .  A
C431        H433   1.082       .  S
Cu434       N437   2.073       .  S
Cu435       N445   2.055       .  S
Cu436       N438   2.076   1_655  S
Cu436       N444   2.075       .  S
N437        N438   1.324   1_655  A
N437        C441   1.345   1_655  A
N438        C439   1.344       .  A
C439        C440   1.381       .  A
C439        H442   1.082       .  S
C440        C441   1.380       .  A
C441        H443   1.082   1_455  S
N444        N445   1.321       .  A
N444        C448   1.347       .  A
N445        C446   1.341       .  A
C446        C447   1.379       .  A
C446        H449   1.082       .  S
C447        C448   1.385       .  A
C447        C471   1.467       .  S
C448        H450   1.082       .  S
N451        N452   1.323       .  A
N451        C455   1.340       .  A
N451       Cu459   2.061       .  S
N452        C453   1.350       .  A
N452       Cu458   2.088       .  S
C453        C454   1.386       .  A
C453        H456   1.082       .  S
C454        C455   1.378       .  A
C454        C488   1.468       .  S
C455        H457   1.082       .  S
Cu460       N462   2.067       .  S
Cu460       N468   2.066       .  S
N461        N462   1.323       .  A
N461        C465   1.345       .  A
N462        C463   1.346       .  A
C463        C464   1.381       .  A
C463        H466   1.082       .  S
C464        C465   1.386       .  A
C465        H467   1.082       .  S
N468        N469   1.320       .  A
N468        C472   1.342       .  A
N469        C470   1.345       .  A
C470        C471   1.382       .  A
C471        C472   1.382       .  A
C472        H474   1.082       .  S
N475        N476   1.320       .  A
N475        C479   1.343       .  A
N475       Cu483   2.053   1_556  S
N476        C477   1.345       .  A
N476       Cu482   2.074       .  S
C477        C478   1.385       .  A
C477        H480   1.082       .  S
C478        C479   1.380       .  A
C478        C512   1.468       .  S
C479        H481   1.082   1_556  S
Cu482       N485   2.075       .  S
Cu483       N493   2.052       .  S
Cu484       N486   2.078       .  S
Cu484       N492   2.077       .  S
N485        N486   1.324       .  A
N485        C489   1.342       .  A
N486        C487   1.349       .  A
C487        C488   1.383       .  A
C487        H490   1.082       .  S
C488        C489   1.380       .  A
C489        H491   1.082       .  S
N492        N493   1.322   1_556  A
N492        C496   1.347       .  A
N493        C494   1.339       .  A
C494        C495   1.377       .  A
C494        H497   1.082       .  S
C495        C496   1.385   1_554  A
C495        C588   1.465       .  S
C496        H498   1.082       .  S
N499        N500   1.323       .  A
N499        C503   1.346       .  A
N499       Cu507   2.071       .  S
N500        C501   1.341       .  A
N500       Cu506   2.060       .  S
C501        C502   1.378       .  A
C501        H504   1.082       .  S
C502        C503   1.381       .  A
C503        H505   1.082       .  S
Cu506       N509   2.059       .  S
Cu507       N517   2.071       .  S
Cu508       N510   2.072       .  S
Cu508       N516   2.074       .  S
N509        N510   1.321       .  A
N509        C513   1.344   1_545  A
N510        C511   1.344   1_545  A
C511        C512   1.384       .  A
C511        H514   1.082       .  S
C512        C513   1.381       .  A
C513        H515   1.082       .  S
N516        N517   1.322       .  A
N516        C520   1.342       .  A
N517        C518   1.348       .  A
C518        C519   1.383       .  A
C518        H521   1.082       .  S
C519        C520   1.383       .  A
C519        C526   1.472       .  S
C520        H522   1.082       .  S
N523        N524   1.325       .  A
N523        C527   1.339       .  A
N523       Cu531   2.058   1_556  S
N524        C525   1.351       .  A
N524       Cu530   2.105       .  S
C525        C526   1.389       .  A
C525        H528   1.082       .  S
C526        C527   1.377       .  A
C527        H529   1.082   1_556  S
Cu530       N533   2.105       .  S
Cu531       N541   2.056       .  S
Cu532       N534   2.062       .  S
Cu532       N540   2.064   1_556  S
N533        N534   1.322       .  A
N533        C537   1.353       .  A
N534        C535   1.339       .  A
C535        C536   1.381       .  A
C535        H538   1.082       .  S
C536        C537   1.393       .  A
C536        C575   1.479       .  S
C537        H539   1.082       .  S
N540        N541   1.318       .  A
N540        C544   1.343       .  A
N541        C542   1.345       .  A
C542        C543   1.383       .  A
C542        H545   1.082       .  S
C543        C544   1.383       .  A
C543        C567   1.468       .  S
C544        H546   1.082       .  S
N547        N548   1.320       .  A
N547        C551   1.347       .  A
N547       Cu555   2.074       .  S
N548        C549   1.341       .  A
N548       Cu554   2.052       .  S
C549        C550   1.378       .  A
C549        H552   1.082       .  S
C550        C551   1.384       .  A
C551        H553   1.082       .  S
Cu554       N557   2.052       .  S
Cu555       N565   2.076       .  S
Cu556       N558   2.070       .  S
Cu556       N564   2.072       .  S
N557        N558   1.321       .  A
N557        C561   1.340       .  A
N558        C559   1.346       .  A
C559        C560   1.381       .  A
C559        H562   1.082       .  S
C560        C561   1.376       .  A
C560        C579   1.463       .  S
C561        H563   1.082       .  S
N564        N565   1.324       .  A
N564        C568   1.345       .  A
N565        C566   1.343       .  A
C566        C567   1.381       .  A
C566        H569   1.082       .  S
C567        C568   1.382       .  A
C568        H570   1.082       .  S
N571        C575   1.356       .  A
N571        C572   1.364       .  A
C572        C573   1.377   1_556  A
C572        C598   1.476       .  S
C573        C574   1.369   1_554  A
C573        H576   1.082       .  S
C574        C575   1.386       .  A
C574        H577   1.082   1_556  S
N578        C582   1.360       .  A
N578        C579   1.351       .  A
N578        C622   1.436   1_545  S
C579        C580   1.377       .  A
C580        C581   1.373       .  A
C580        H583   1.082       .  S
C581        C582   1.387       .  A
C581        H584   1.080       .  S
N585        N586   1.319       .  A
N585        C589   1.340       .  A
N585       Cu593   2.057       .  S
N586        C587   1.345       .  A
N586       Cu592   2.058       .  S
C587        C588   1.383       .  A
C587        H590   1.082       .  S
C588        C589   1.382       .  A
C589        H591   1.082       .  S
Cu592       N595   2.059       .  S
Cu593       N603   2.056       .  S
Cu594       N596   2.097       .  S
Cu594       N602   2.097       .  S
N595        N596   1.322       .  A
N595        C599   1.340   1_554  A
N596        C597   1.349       .  A
C597        C598   1.390   1_554  A
C597        H600   1.082       .  S
C598        C599   1.379       .  A
C599        H601   1.080       .  S
N602        N603   1.323       .  A
N602        C606   1.347       .  A
N603        C604   1.344       .  A
C604        C605   1.378       .  A
C604        H607   1.082       .  S
C605        C606   1.389       .  A
C605        C629   1.473       .  S
C606        H608   1.082       .  S
N609        N610   1.319       .  A
N609        C613   1.342       .  A
N609       Cu617   2.050       .  S
N610        C611   1.345       .  A
N610       Cu616   2.070       .  S
C611        C612   1.385       .  A
C611        H614   1.082       .  S
C612        C613   1.379       .  A
C613        H615   1.082       .  S
Cu616       N619   2.071       .  S
Cu617       N627   2.050       .  S
Cu618       N620   2.102       .  S
Cu618       N626   2.102       .  S
N619        N620   1.327       .  A
N619        C623   1.343       .  A
N620        C621   1.352       .  A
C621        C622   1.383       .  A
C621        H624   1.082       .  S
C622        C623   1.376       .  A
C623        H625   1.082       .  S
N626        N627   1.322       .  A
N626        C630   1.349       .  A
N627        C628   1.342       .  A
C628        C629   1.377       .  A
C628        H631   1.082       .  S
C629        C630   1.390       .  A
C630        H632   1.082       .  S
