geometry optimzed in LAMMPS
_audit_creation_date              2020-12-01 
_audit_creation_method            'lammps2cif' 
_symmetry_space_group_name_H-M    'P1' 
_symmetry_Int_Tables_number       1 
_symmetry_cell_setting            triclinic 
loop_ 
_symmetry_equiv_pos_as_xyz 
  x,y,z 
_cell_length_a                    35.67664937 
_cell_length_b                    35.66562283474293 
_cell_length_c                    35.95241534452153 
_cell_angle_alpha                 89.4998473353156 
_cell_angle_beta                  89.79386220205876 
_cell_angle_gamma                 90.36841972681285 
loop_ 
_atom_site_label 
_atom_site_type_symbol 
_atom_site_fract_x 
_atom_site_fract_y 
_atom_site_fract_z 
_atom_site_charge 
C1          C  0.76626461  0.49846037  0.02324578     0.89900
C2          C  0.74104022  0.53169340  0.01336377    -0.50300
C3          C  0.72364865  0.52875153  0.97973901     0.12900
C4          C  0.73280506  0.49226640  0.95914964     0.23800
C5          C  0.74065588  0.46403212  0.02065367    -0.51000
C6          C  0.72318090  0.46044476  0.98715028     0.13000
C7          C  0.79349959  0.49557159  0.98986915    -0.50600
C8          C  0.77582882  0.49258804  0.95596558     0.13500
H9          H  0.73842001  0.55624245  0.03083199     0.18100
H10         H  0.71828716  0.48963856  0.93199615     0.03800
H11         H  0.73769105  0.44353964  0.04302063     0.18400
H12         H  0.82364796  0.49742997  0.99313362     0.18100
C13         C  0.53866851  0.73427119  0.97236579     0.89900
C14         C  0.53037453  0.76543390  0.94414370    -0.50300
C15         C  0.50031259  0.78718766  0.95295198     0.12900
C16         C  0.48206937  0.77650620  0.99079388     0.23800
C17         C  0.54367885  0.75421466  0.00960551    -0.51000
C18         C  0.51419779  0.77624328  0.01977643     0.13000
C19         C  0.50149918  0.71269423  0.97632346    -0.50600
C20         C  0.47168740  0.73461004  0.98649987     0.13500
H21         H  0.54629047  0.76915728  0.91854689     0.18100
H22         H  0.45785779  0.79427977  0.99849385     0.03800
H23         H  0.56787377  0.74978115  0.02733895     0.18400
H24         H  0.49944384  0.68289195  0.97097416     0.18100
C25         C  0.05604232  0.51969611  0.77853184     0.89900
C26         C  0.05844677  0.48114309  0.76048783    -0.50300
C27         C  0.02927518  0.47282881  0.73751014     0.12900
C28         C  0.99963619  0.50430692  0.73493700     0.23800
C29         C  0.05150996  0.54744058  0.74588886    -0.51000
C30         C  0.02158674  0.53995108  0.72331183     0.13000
C31         C  0.01766458  0.51974556  0.79840109    -0.50600
C32         C  0.98794566  0.51132100  0.77566533     0.13500
H33         H  0.08107428  0.46164867  0.76604220     0.18100
H34         H  0.97561714  0.49768077  0.71649685     0.03800
H35         H  0.06858032  0.57261723  0.74291127     0.18400
H36         H  0.01457926  0.52634065  0.82765317     0.18100
C37         C  0.52754837  0.00002325  0.71486592     0.89900
C38         C  0.52577248  0.03790469  0.73432442    -0.50300
C39         C  0.49320229  0.04403029  0.75317526     0.12900
C40         C  0.46482668  0.01099499  0.75064585     0.23800
C41         C  0.51929760  0.97079705  0.74549228    -0.51000
C42         C  0.48618144  0.97583147  0.76386899     0.13000
C43         C  0.49257701  0.99903447  0.68969440    -0.50600
C44         C  0.45947201  0.00492430  0.70846490     0.13500
H45         H  0.54832160  0.05850063  0.73287452     0.18100
H46         H  0.43820623  0.01574293  0.76596719     0.03800
H47         H  0.53663161  0.94623166  0.74990223     0.18400
H48         H  0.49423338  0.99360462  0.66010581     0.18100
C49         C  0.73423203  0.99123303  0.53052430     0.89900
C50         C  0.76241868  0.95921169  0.52677754    -0.50300
C51         C  0.78506687  0.96158711  0.49609113     0.12900
C52         C  0.77773086  0.99706916  0.47218011     0.23800
C53         C  0.75824047  0.02693455  0.52977143    -0.51000
C54         C  0.78089068  0.03071927  0.49905891     0.13000
C55         C  0.71280210  0.99153912  0.49342703    -0.50600
C56         C  0.73552598  0.99469955  0.46254639     0.13500
H57         H  0.76424664  0.93663846  0.54711247     0.18100
H58         H  0.79625362  0.99953885  0.44736197     0.03800
H59         H  0.75729796  0.04710695  0.55215079     0.18400
H60         H  0.68256607  0.98851929  0.49207803     0.18100
C61         C  0.05065471  0.78191707  0.50098222     0.89900
C62         C  0.04836504  0.75126646  0.53115767    -0.50300
C63         C  0.01863086  0.72706712  0.52789261     0.12900
C64         C  0.99426701  0.73552366  0.49340018     0.23800
C65         C  0.05091857  0.76066905  0.46419692    -0.51000
C66         C  0.02151677  0.73648023  0.45980050     0.13000
C67         C  0.01203742  0.80119330  0.50214993    -0.50600
C68         C  0.98230068  0.77687177  0.49774430     0.13500
H69         H  0.06875151  0.74915430  0.55340499     0.18100
H70         H  0.97015879  0.71599902  0.49034579     0.03800
H71         H  0.07211284  0.76528363  0.44283301     0.18400
H72         H  0.00892902  0.83115123  0.50590940     0.18100
C73         C  0.22816739  0.50419913  0.06415341     0.89900
C74         C  0.25728840  0.47362818  0.05810003    -0.50300
C75         C  0.27949781  0.47870209  0.02736646     0.12900
C76         C  0.27084198  0.51545273  0.00599915     0.23800
C77         C  0.25035300  0.54090719  0.06515766    -0.51000
C78         C  0.27249427  0.54732082  0.03492218     0.13000
C79         C  0.20623131  0.50621391  0.02708114    -0.50600
C80         C  0.22889174  0.51227782  0.99638582     0.13500
H81         H  0.25781232  0.44882516  0.07570459     0.18100
H82         H  0.28895974  0.52017378  0.98120929     0.03800
H83         H  0.24774986  0.56095091  0.08761812     0.18400
H84         H  0.17604298  0.50386407  0.02544194     0.18100
O85         O  0.96899351  0.44159541  0.97037919    -0.68300
O86         O  0.03481319  0.44545606  0.05289013    -0.68500
O87         O  0.96063226  0.43644500  0.04455149    -0.68400
O88         O  0.04260123  0.45025026  0.97839116    -0.68400
O89         O  0.03496632  0.51070285  0.98071991    -0.68400
O90         O  0.95427053  0.49701303  0.04766683    -0.68400
O91         O  0.02808552  0.50603162  0.05490964    -0.68300
O92         O  0.96159660  0.50202443  0.97394723    -0.68500
V93         V  0.00167268  0.44454181  0.01171873     1.35200
V94         V  0.99488885  0.50271539  0.01435117     1.35200
C95         C  0.95481798  0.47147882  0.95798413     0.80900
C96         C  0.04243078  0.47651529  0.06777501     0.81000
C97         C  0.94360333  0.46453874  0.05709216     0.80800
C98         C  0.05170889  0.48277662  0.96751930     0.80800
N99         N  0.88796913  0.48969542  0.87164578     0.00000
C100        C  0.89781859  0.50070000  0.83692118     0.02600
C101        C  0.86597242  0.51291540  0.81849582    -0.20300
C102        C  0.83626933  0.50965291  0.84359655    -0.20500
C103        C  0.85097769  0.49553791  0.87650149     0.02500
H104        H  0.86451084  0.52460065  0.79067944     0.16200
H105        H  0.80773736  0.51844663  0.83871009     0.16300
C106        C  0.98432107  0.54586760  0.27020706     0.89900
C107        C  0.01468058  0.53896528  0.24108029    -0.50300
C108        C  0.00985450  0.50707838  0.22094301     0.12900
C109        C  0.97315291  0.48587097  0.23059899     0.23800
C110        C  0.94762580  0.54638772  0.24850155    -0.51000
C111        C  0.94124854  0.51517376  0.22771337     0.13000
C112        C  0.98274488  0.50941620  0.29355409    -0.50600
C113        C  0.97657655  0.47778028  0.27277155     0.13500
H114        H  0.03920508  0.55696015  0.23794812     0.18100
H115        H  0.96879027  0.46024258  0.21385063     0.03800
H116        H  0.92792696  0.56944537  0.24999994     0.18400
H117        H  0.98631435  0.50915493  0.32348168     0.18100
N118        N  0.85683265  0.47282913  0.12606622     0.00000
C119        C  0.86105931  0.48464145  0.16142041     0.02600
C120        C  0.82750340  0.49962115  0.17381659    -0.20300
C121        C  0.80268111  0.49782765  0.14438751    -0.20500
C122        C  0.82182381  0.48172555  0.11505478     0.02500
H123        H  0.82187012  0.51179257  0.20070186     0.16200
H124        H  0.77425284  0.50821967  0.14417771     0.16300
N125        N  0.13336360  0.50735431  0.89439699     0.00000
C126        C  0.13091112  0.51583288  0.85781021     0.02600
C127        C  0.16521822  0.52978509  0.84560342    -0.20300
C128        C  0.18895316  0.52975602  0.87617201    -0.20500
C129        C  0.16827662  0.51589220  0.90609585     0.02500
H130        H  0.17249585  0.53860467  0.81761533     0.16200
H131        H  0.21780987  0.53921139  0.87626294     0.16300
O132        O  0.53655647  0.52939118  0.97611003    -0.68300
O133        O  0.45882799  0.45656535  0.97795479    -0.68500
O134        O  0.46213839  0.53169874  0.97724362    -0.68400
O135        O  0.53365720  0.45395782  0.97641503    -0.68400
O136        O  0.53466646  0.45352997  0.03692780    -0.68400
O137        O  0.46309791  0.53197718  0.03777063    -0.68400
O138        O  0.45963210  0.45657824  0.03847701    -0.68300
O139        O  0.53778945  0.52929802  0.03662166    -0.68500
V140        V  0.49786518  0.49283918  0.97814075     1.35200
V141        V  0.49881255  0.49276458  0.03631506     1.35200
C142        C  0.54952630  0.54239869  0.00598878     0.80900
C143        C  0.44609892  0.44431532  0.00853913     0.81000
C144        C  0.45103614  0.54536586  0.00749838     0.80800
C145        C  0.54597116  0.44033041  0.00641080     0.80800
N146        N  0.62432324  0.62343265  0.98381800     0.00000
C147        C  0.65886215  0.61417136  0.97195500     0.02600
C148        C  0.67404128  0.64319863  0.95096353    -0.20300
C149        C  0.64733715  0.67125075  0.95017015    -0.20500
C150        C  0.61678924  0.65815105  0.97066339     0.02500
H151        H  0.70189572  0.64457664  0.93899813     0.16200
H152        H  0.65060171  0.69850343  0.93708615     0.16300
C153        C  0.48580764  0.23584661  0.95176027     0.89900
C154        C  0.45338193  0.26335096  0.95599638    -0.50300
C155        C  0.45418516  0.28419481  0.98776501     0.12900
C156        C  0.48854233  0.27567468  0.01242261     0.23800
C157        C  0.52116213  0.26026978  0.95510983    -0.51000
C158        C  0.52305414  0.28113487  0.98689123     0.13000
C159        C  0.48509368  0.21204048  0.98796858    -0.50600
C160        C  0.48661184  0.23295350  0.02002422     0.13500
H161        H  0.43207698  0.26614889  0.93474514     0.18100
H162        H  0.48971207  0.29273077  0.03811174     0.03800
H163        H  0.54235566  0.26129414  0.93340182     0.18400
H164        H  0.48469088  0.18172264  0.98814486     0.18100
O165        O  0.45288231  0.03039012  0.02499830    -0.68300
O166        O  0.46291085  0.95328506  0.95449393    -0.68500
O167        O  0.46340481  0.95679056  0.02881332    -0.68400
O168        O  0.45228536  0.02742851  0.95088475    -0.68400
O169        O  0.51275217  0.03607840  0.94962561    -0.68400
O170        O  0.52387157  0.96551428  0.02787274    -0.68400
O171        O  0.52338682  0.96184828  0.95328633    -0.68300
O172        O  0.51334257  0.03922152  0.02371815    -0.68500
V173        V  0.45906125  0.99204950  0.98969868     1.35200
V174        V  0.51719296  0.00045119  0.98858509     1.35200
C175        C  0.48151130  0.04756095  0.03636608     0.80900
C176        C  0.49470947  0.94470468  0.94187714     0.81000
C177        C  0.49533137  0.94985976  0.04194718     0.80800
C178        C  0.48061777  0.04408028  0.93756015     0.80800
N179        N  0.48325250  0.87328531  0.85865546     0.00000
C180        C  0.47458567  0.83633275  0.85958253     0.02600
C181        C  0.46190760  0.82579684  0.82480771    -0.20300
C182        C  0.46220952  0.85768077  0.80249747    -0.20500
C183        C  0.47571757  0.88656008  0.82419781     0.02500
H184        H  0.45501720  0.79764672  0.81601955     0.16200
H185        H  0.45607358  0.85892510  0.77305698     0.16300
C186        C  0.54851515  0.99305651  0.25693613     0.89900
C187        C  0.54267395  0.96275453  0.22751607    -0.50300
C188        C  0.51214338  0.96773087  0.20517064     0.12900
C189        C  0.49075589  0.00450756  0.21376668     0.23800
C190        C  0.55050777  0.02996645  0.23500470    -0.51000
C191        C  0.52036387  0.03674195  0.21268006     0.13000
C192        C  0.51078129  0.99461685  0.27805217    -0.50600
C193        C  0.48022826  0.00097552  0.25546446     0.13500
H194        H  0.56127153  0.93893390  0.22504793     0.18100
H195        H  0.46614306  0.00919981  0.19557422     0.03800
H196        H  0.57334407  0.04997641  0.23818569     0.18400
H197        H  0.50893194  0.99087668  0.30795930     0.18100
N198        N  0.49478974  0.86992854  0.12000067     0.00000
C199        C  0.49244394  0.83384951  0.10869717     0.02600
C200        C  0.49314577  0.81032133  0.13946065    -0.20300
C201        C  0.49646667  0.83305129  0.17025957    -0.20500
C202        C  0.49755982  0.86985677  0.15761011     0.02500
H203        H  0.49240750  0.77998422  0.13954211     0.16200
H204        H  0.49937033  0.82358300  0.19877812     0.16300
N205        N  0.47261610  0.12664823  0.86157116     0.00000
C206        C  0.47216064  0.12233065  0.82426607     0.02600
C207        C  0.47390851  0.15740911  0.80742291    -0.20300
C208        C  0.47580727  0.18354678  0.83571586    -0.20500
C209        C  0.47534043  0.16369087  0.86913939     0.02500
H210        H  0.47412332  0.16357583  0.77791107     0.16200
H211        H  0.47773854  0.21358072  0.83179963     0.16300
O212        O  0.95715225  0.46569990  0.47403671    -0.68300
O213        O  0.97243548  0.54423002  0.54343635    -0.68500
O214        O  0.95894316  0.54083073  0.47062345    -0.68400
O215        O  0.96996963  0.46867539  0.54733167    -0.68400
O216        O  0.02994520  0.46622217  0.53651288    -0.68400
O217        O  0.01907359  0.53977046  0.46027072    -0.68400
O218        O  0.03250595  0.54191890  0.53319291    -0.68300
O219        O  0.01715331  0.46458976  0.46310133    -0.68500
V220        V  0.96581306  0.50476592  0.50873695     1.35200
V221        V  0.02352620  0.50309956  0.49853501     1.35200
C222        C  0.98466826  0.45221946  0.45655716     0.80900
C223        C  0.00504260  0.55687681  0.54935539     0.81000
C224        C  0.98710382  0.55280424  0.45285154     0.80800
C225        C  0.00154969  0.45482089  0.55454355     0.80800
N226        N  0.01488579  0.63819374  0.62569884     0.00000
C227        C  0.01548711  0.62790239  0.66206594     0.02600
C228        C  0.01241508  0.65915230  0.68415349    -0.20300
C229        C  0.01000970  0.68957600  0.66044294    -0.20500
C230        C  0.01158869  0.67615061  0.62444629     0.02500
H231        H  0.01477711  0.66006773  0.71413826     0.16200
H232        H  0.00978460  0.71870403  0.66865209     0.16300
O233        O  0.54226195  0.06256577  0.44887695    -0.68300
O234        O  0.46267428  0.06235181  0.51915195    -0.68500
O235        O  0.53825969  0.06719386  0.52328365    -0.68400
O236        O  0.46736994  0.05756582  0.44546930    -0.68400
O237        O  0.47044533  0.99676363  0.45049563    -0.68400
O238        O  0.54148711  0.00634592  0.52699890    -0.68400
O239        O  0.46654059  0.00160085  0.52382059    -0.68300
O240        O  0.54490335  0.00170919  0.45318932    -0.68500
V241        V  0.50277605  0.06133310  0.48436635     1.35200
V242        V  0.50587693  0.00286468  0.48863528     1.35200
C243        C  0.55655043  0.03198818  0.43887640     0.80900
C244        C  0.45046196  0.03170079  0.53231676     0.81000
C245        C  0.55214372  0.03812339  0.53787811     0.80800
C246        C  0.45670806  0.02544510  0.43536498     0.80800
N247        N  0.62710329  0.02025894  0.61717249     0.00000
C248        C  0.61668923  0.00926565  0.65180369     0.02600
C249        C  0.64626239  0.99086138  0.66874081    -0.20300
C250        C  0.67510400  0.98983991  0.64295353    -0.20500
C251        C  0.66225276  0.00763757  0.61105343     0.02500
H252        H  0.64687394  0.97899310  0.69652253     0.16200
H253        H  0.70219647  0.97703995  0.64708580     0.16300
C254        C  0.22852904  0.06627548  0.48003120     0.89900
C255        C  0.26087365  0.06263325  0.50783508    -0.50300
C256        C  0.28287093  0.03175483  0.50335342     0.12900
C257        C  0.27136280  0.00811086  0.46921998     0.23800
C258        C  0.24725335  0.06594079  0.44163987    -0.51000
C259        C  0.27001101  0.03589067  0.43558032     0.13000
C260        C  0.20750286  0.02850994  0.48297048    -0.50600
C261        C  0.22969693  0.99771494  0.47693704     0.13500
H262        H  0.26497172  0.08233860  0.53032783     0.18100
H263        H  0.28944437  0.98332718  0.46468233     0.03800
H264        H  0.24286217  0.08780244  0.42090891     0.18400
H265        H  0.17794536  0.02677960  0.48990020     0.18100
O266        O  0.02194001  0.05118243  0.44771104    -0.68300
O267        O  0.95022494  0.97251007  0.45411801    -0.68500
O268        O  0.94690482  0.04765152  0.45341918    -0.68400
O269        O  0.02512888  0.97647628  0.44833904    -0.68400
O270        O  0.03010526  0.97748817  0.50865106    -0.68400
O271        O  0.95064096  0.04704885  0.51383198    -0.68400
O272        O  0.95537631  0.97208665  0.51442716    -0.68300
O273        O  0.02547472  0.05200168  0.50812723    -0.68500
V274        V  0.98603697  0.01195954  0.45205981     1.35200
V275        V  0.99023460  0.01215875  0.51009068     1.35200
C276        C  0.03609937  0.06451438  0.47688562     0.80900
C277        C  0.94109565  0.95874837  0.48533083     0.81000
C278        C  0.93561120  0.05933890  0.48449879     0.80800
C279        C  0.04125861  0.96559753  0.47761884     0.80800
N280        N  0.87427771  0.86758946  0.48971011     0.00000
C281        C  0.83641748  0.86514713  0.49201617     0.02600
C282        C  0.82602055  0.82777699  0.49434074    -0.20300
C283        C  0.85851416  0.80692518  0.49336159    -0.20500
C284        C  0.88812008  0.83225141  0.49092536     0.02500
H285        H  0.79784959  0.81681028  0.49779662     0.16200
H286        H  0.85990715  0.77671832  0.49548671     0.16300
C287        C  0.94835400  0.24509159  0.51109032     0.89900
C288        C  0.95470163  0.27238645  0.54330432    -0.50300
C289        C  0.98571957  0.29489974  0.53956762     0.12900
C290        C  0.00712806  0.28838892  0.50284006     0.23800
C291        C  0.94698597  0.27019056  0.47635869    -0.51000
C292        C  0.97773292  0.29300082  0.47166902     0.13000
C293        C  0.98536333  0.22342287  0.50787363    -0.50600
C294        C  0.01644183  0.24605136  0.50320262     0.13500
H295        H  0.93584590  0.27368503  0.56700495     0.18100
H296        H  0.03211432  0.30684507  0.49928498     0.03800
H297        H  0.92307231  0.27025853  0.45780751     0.18400
H298        H  0.98642193  0.19308924  0.50961797     0.18100
N299        N  0.85637039  0.13848821  0.49433099     0.00000
C300        C  0.81937881  0.13377258  0.50219718     0.02600
C301        C  0.80391783  0.16815285  0.51065895    -0.20300
C302        C  0.83228848  0.19449047  0.50819785    -0.20500
C303        C  0.86446485  0.17543643  0.49844747     0.02500
H304        H  0.77527534  0.17336658  0.51907931     0.16200
H305        H  0.82977127  0.22416139  0.51364429     0.16300
N306        N  0.12991222  0.89683900  0.48005094     0.00000
C307        C  0.16627892  0.90749582  0.48309826     0.02600
C308        C  0.18767608  0.87599761  0.49078543    -0.20300
C309        C  0.16309533  0.84563636  0.49274515    -0.20500
C310        C  0.12755929  0.85948407  0.48596364     0.02500
H311        H  0.21763185  0.87494438  0.49510720     0.16200
H312        H  0.17049663  0.81671987  0.49808810     0.16300
N313        N  0.36619248  0.01419717  0.60380297     0.00000
C314        C  0.32835579  0.01380636  0.60060604     0.02600
C315        C  0.31274318  0.00492660  0.63487477    -0.20300
C316        C  0.34194406  0.99930916  0.65942229    -0.20500
C317        C  0.37478954  0.00551989  0.63956363     0.02500
H318        H  0.28317007  0.00363331  0.64160996     0.16200
H319        H  0.33909469  0.99219242  0.68859400     0.16300
N320        N  0.00545918  0.37825053  0.63752656     0.00000
C321        C  0.00914111  0.38813910  0.67367739     0.02600
C322        C  0.00727702  0.35634243  0.69603317    -0.20300
C323        C  0.00173545  0.32638587  0.67272700    -0.20500
C324        C  0.00072343  0.34045363  0.63678985     0.02500
H325        H  0.00791724  0.35499323  0.72609575     0.16200
H326        H  0.99735455  0.29750697  0.68126818     0.16300
N327        N  0.11320450  0.14700846  0.47940533     0.00000
C328        C  0.15094238  0.14384292  0.47968379     0.02600
C329        C  0.16659793  0.17830277  0.48853443    -0.20300
C330        C  0.13714270  0.20292409  0.49387841    -0.20500
C331        C  0.10434012  0.18269214  0.48827888     0.02500
H332        H  0.19611920  0.18499992  0.49080593     0.16200
H333        H  0.13974157  0.23207436  0.50154143     0.16300
N334        N  0.63672863  0.01133157  0.36457312     0.00000
C335        C  0.63085584  0.00175117  0.32879058     0.02600
C336        C  0.66306868  0.98522598  0.31498234    -0.20300
C337        C  0.68890746  0.98443473  0.34383061    -0.20500
C338        C  0.67158364  0.00035299  0.37442725     0.02500
H339        H  0.66734180  0.97451191  0.28723877     0.16200
H340        H  0.71658726  0.97230469  0.34268069     0.16300
N341        N  0.97921141  0.63447958  0.37558260     0.00000
C342        C  0.98779289  0.67087193  0.38136860     0.02600
C343        C  0.99164634  0.68921742  0.34736542    -0.20300
C344        C  0.98573426  0.66263107  0.32017890    -0.20500
C345        C  0.97825556  0.62912754  0.33854453     0.02500
H346        H  0.99826674  0.71852468  0.34265104     0.16200
H347        H  0.98695326  0.66724000  0.29040718     0.16300
N348        N  0.62582123  0.36151037  0.99803420     0.00000
C349        C  0.62368900  0.32467095  0.98901044     0.02600
C350        C  0.65937108  0.31135997  0.98196896    -0.20300
C351        C  0.68390253  0.34100718  0.98627680    -0.20500
C352        C  0.66241987  0.37153945  0.99574014     0.02500
H353        H  0.66667914  0.28334555  0.97332597     0.16200
H354        H  0.71399162  0.34046625  0.98242853     0.16300
N355        N  0.48241899  0.12730025  0.11353694     0.00000
C356        C  0.49043145  0.12104446  0.14967774     0.02600
C357        C  0.49823504  0.15514658  0.16632129    -0.20300
C358        C  0.49514259  0.18264746  0.13877876    -0.20500
C359        C  0.48573254  0.16439467  0.10613669     0.02500
H360        H  0.50585066  0.15965361  0.19504715     0.16200
H361        H  0.50023086  0.21232582  0.14229084     0.16300
N362        N  0.37826809  0.63104020  0.00353447     0.00000
C363        C  0.34091613  0.62676792  0.00674738     0.02600
C364        C  0.32417244  0.66170929  0.00724624    -0.20300
C365        C  0.35282807  0.68801792  0.00371935    -0.20500
C366        C  0.38605379  0.66810566  0.00152508     0.02500
H367        H  0.29451728  0.66752475  0.00937365     0.16200
H368        H  0.34944396  0.71811902  0.00286002     0.16300
N369        N  0.11665577  0.48590741  0.15084545     0.00000
C370        C  0.11169282  0.48817457  0.18813600     0.02600
C371        C  0.14629448  0.49123180  0.20505403    -0.20300
C372        C  0.17298309  0.49144128  0.17729002    -0.20500
C373        C  0.15389579  0.48861021  0.14384900     0.02500
H374        H  0.15153508  0.49519279  0.23439912     0.16200
H375        H  0.20273510  0.49506075  0.18162154     0.16300
N376        N  0.97376402  0.37795125  0.37326959     0.00000
C377        C  0.96865391  0.34026051  0.37416162     0.02600
C378        C  0.96398061  0.32728695  0.33838419    -0.20300
C379        C  0.96679676  0.35792482  0.31485002    -0.20500
C380        C  0.97263812  0.38902669  0.33708599     0.02500
H381        H  0.95848277  0.29863192  0.33025204     0.16200
H382        H  0.96400354  0.35712879  0.28494530     0.16300
N383        N  0.38105112  0.01322784  0.35440486     0.00000
C384        C  0.39037968  0.01158798  0.31800223     0.02600
C385        C  0.35771864  0.01279142  0.29717507    -0.20300
C386        C  0.32799715  0.01514880  0.32233999    -0.20500
C387        C  0.34342479  0.01509079  0.35772931     0.02500
H388        H  0.35541405  0.01209357  0.26720307     0.16200
H389        H  0.29854543  0.01626266  0.31539735     0.16300
N390        N  0.35947238  0.37150871  0.00590891     0.00000
C391        C  0.35848950  0.33583808  0.99325451     0.02600
C392        C  0.32166308  0.32377498  0.99080697    -0.20300
C393        C  0.29955804  0.35277316  0.00307022    -0.20500
C394        C  0.32356540  0.38193402  0.01160929     0.02500
H395        H  0.31194320  0.29656086  0.98170402     0.16200
H396        H  0.26935946  0.35239186  0.00601141     0.16300
C397        C  0.05591287  0.23242696  0.49940888    -0.13000
C398        C  0.06497644  0.19644078  0.49243683    -0.28200
H399        H  0.07803253  0.25327628  0.50153720     0.16000
H400        H  0.04273980  0.17599974  0.48887155     0.16600
C401        C  0.90231484  0.19315734  0.49440384    -0.13000
C402        C  0.91299101  0.22154628  0.51665127    -0.28200
H403        H  0.92113662  0.18326834  0.47286801     0.16000
H404        H  0.89447966  0.22916684  0.53940993     0.16600
C405        C  0.99814098  0.32210560  0.56868894    -0.13000
C406        C  0.98943193  0.31654249  0.60490009    -0.28200
H407        H  0.01625905  0.34525957  0.56043212     0.16000
H408        H  0.97469537  0.29094710  0.61274192     0.16600
C409        C  0.98254410  0.31989377  0.43984007    -0.13000
C410        C  0.96406674  0.31565119  0.40747030    -0.28200
H411        H  0.00311380  0.34221612  0.44258253     0.16000
H412        H  0.94660264  0.29099345  0.40362730     0.16600
C413        C  0.08742916  0.11752524  0.47574162    -0.09800
C414        C  0.06412561  0.09312843  0.47481841    -0.11400
C415        C  0.09911104  0.92067713  0.47663389    -0.09800
C416        C  0.07233472  0.94082435  0.47580951    -0.11400
C417        C  0.88297004  0.11023315  0.48961644    -0.09800
C418        C  0.90655559  0.08655597  0.48657335    -0.11400
C419        C  0.91568583  0.92780016  0.48763017    -0.09800
C420        C  0.89591706  0.90045050  0.48896493    -0.11400
C421        C  0.20524827  0.10118875  0.48755238    -0.13000
C422        C  0.17195232  0.10864469  0.47158826    -0.28200
H423        H  0.21615265  0.12111120  0.50755130     0.16000
H424        H  0.15931820  0.08810744  0.45329387     0.16600
C425        C  0.21632638  0.95771629  0.47923190    -0.13000
C426        C  0.17975853  0.94732566  0.48010805    -0.28200
H427        H  0.23769114  0.93622043  0.47969328     0.16000
H428        H  0.15841599  0.96868542  0.47795291     0.16600
C429        C  0.31103351  0.01974180  0.53211629    -0.13000
C430        C  0.30529571  0.02712191  0.56860956    -0.28200
H431        H  0.33433354  0.00225146  0.52378614     0.16000
H432        H  0.27944941  0.04085823  0.57656196     0.16600
C433        C  0.32307141  0.01598462  0.39435660    -0.13000
C434        C  0.28892825  0.03122503  0.39863112    -0.28200
H435        H  0.33778226  0.00609272  0.41890413     0.16000
H436        H  0.27559448  0.04394365  0.37455352     0.16600
C437        C  0.40650756  0.01707758  0.38345330    -0.09800
C438        C  0.42923376  0.02130656  0.40738862    -0.11400
C439        C  0.58530066  0.03091102  0.41146592    -0.09800
C440        C  0.60917151  0.02385652  0.38913726    -0.11400
C441        C  0.57985088  0.04011528  0.56620880    -0.09800
C442        C  0.60256017  0.03350910  0.58986290    -0.11400
C443        C  0.41830349  0.03038022  0.55584151    -0.09800
C444        C  0.39260134  0.02431813  0.57666730    -0.11400
C445        C  0.98280715  0.58127959  0.42520618    -0.09800
C446        C  0.98009242  0.60589379  0.40244418    -0.11400
C447        C  0.97639934  0.40198626  0.40388599    -0.09800
C448        C  0.97930615  0.42401211  0.42893359    -0.11400
C449        C  0.01078884  0.58788562  0.57388259    -0.09800
C450        C  0.01403694  0.61267551  0.59623703    -0.11400
C451        C  0.00508634  0.40341066  0.60735510    -0.09800
C452        C  0.00463428  0.42647367  0.58273294    -0.11400
C453        C  0.51621322  0.07457221  0.19476696    -0.13000
C454        C  0.49211457  0.08280827  0.16725102    -0.28200
H455        H  0.53497154  0.09662304  0.20421132     0.16000
H456        H  0.47504836  0.06063781  0.15547435     0.16600
C457        C  0.49980033  0.93874720  0.17737890    -0.13000
C458        C  0.50754652  0.90184411  0.18252198    -0.28200
H459        H  0.48292040  0.94765875  0.15393512     0.16000
H460        H  0.52095820  0.89343467  0.20829182     0.16600
C461        C  0.44026991  0.00447565  0.26841827    -0.13000
C462        C  0.43010942  0.00866806  0.30435435    -0.28200
H463        H  0.41870280  0.00420277  0.24723427     0.16000
H464        H  0.45185644  0.00974566  0.32525511     0.16600
C465        C  0.58343024  0.98571872  0.28038165    -0.13000
C466        C  0.59486258  0.00795215  0.30833868    -0.28200
H467        H  0.60059643  0.96173200  0.27334143     0.16000
H468        H  0.57712882  0.03100397  0.31683352     0.16600
C469        C  0.47823783  0.07574052  0.06360257    -0.09800
C470        C  0.47873316  0.09943717  0.08684923    -0.11400
C471        C  0.47409119  0.09742264  0.88761887    -0.09800
C472        C  0.47639603  0.07242245  0.90992323    -0.11400
C473        C  0.49870181  0.92437133  0.07222310    -0.09800
C474        C  0.49793019  0.90055171  0.09583564    -0.11400
C475        C  0.49350739  0.89558000  0.88870947    -0.09800
C476        C  0.49749578  0.91689659  0.91396136    -0.11400
C477        C  0.48217827  0.18090976  0.06777412    -0.13000
C478        C  0.48838040  0.21731391  0.05895966    -0.28200
H479        H  0.47442501  0.16175386  0.04587327     0.16000
H480        H  0.49520800  0.23680464  0.08095022     0.16600
C481        C  0.48394465  0.21653088  0.91394024    -0.13000
C482        C  0.47830419  0.17962240  0.90761986    -0.28200
H483        H  0.48637072  0.23535035  0.89017909     0.16000
H484        H  0.47541126  0.16036432  0.93089668     0.16600
C485        C  0.55524209  0.30653210  0.99620867    -0.13000
C486        C  0.58960564  0.30174946  0.98126352    -0.28200
H487        H  0.55083610  0.32793798  0.01696318     0.16000
H488        H  0.59425447  0.27783627  0.96344310     0.16600
C489        C  0.42463158  0.31198281  0.99799618    -0.13000
C490        C  0.39050573  0.31209328  0.98184482    -0.28200
H491        H  0.43034945  0.33083948  0.02083007     0.16000
H492        H  0.38364441  0.29082686  0.96160896     0.16600
C493        C  0.41651264  0.41713897  0.00912854    -0.09800
C494        C  0.39072112  0.39531839  0.00825498    -0.11400
C495        C  0.40422391  0.60179698  0.00532531    -0.09800
C496        C  0.42560118  0.57600652  0.00711726    -0.11400
C497        C  0.57628747  0.57237982  0.00460114    -0.09800
C498        C  0.59814663  0.59727240  0.99758832    -0.11400
C499        C  0.57260959  0.41053365  0.00547732    -0.09800
C500        C  0.59628293  0.38683660  0.00257887    -0.11400
C501        C  0.04069433  0.49219656  0.19721580    -0.13000
C502        C  0.07646702  0.49536475  0.20912629    -0.28200
H503        H  0.03377726  0.47873982  0.17125656     0.16000
H504        H  0.08091261  0.50558702  0.23717985     0.16600
C505        C  0.90491049  0.51099585  0.20778606    -0.13000
C506        C  0.89761995  0.48534742  0.18157072    -0.28200
H507        H  0.88344148  0.53140888  0.21426409     0.16000
H508        H  0.91943627  0.46628073  0.17282472     0.16600
C509        C  0.97385210  0.43862937  0.28757682    -0.13000
C510        C  0.97582087  0.42881275  0.32388773    -0.28200
H511        H  0.96987889  0.41703334  0.26694433     0.16000
H512        H  0.97969743  0.45025147  0.34469596     0.16600
C513        C  0.99170637  0.58169638  0.29129380    -0.13000
C514        C  0.97131032  0.59245474  0.32066034    -0.28200
H515        H  0.01433453  0.59995278  0.28166902     0.16000
H516        H  0.95014997  0.57375231  0.33239309     0.16600
C517        C  0.06720260  0.47865935  0.09861268    -0.09800
C518        C  0.08912655  0.48213366  0.12356674    -0.11400
C519        C  0.08002029  0.48821320  0.94003515    -0.09800
C520        C  0.10394475  0.49587441  0.91770983    -0.11400
C521        C  0.88630610  0.46366649  0.10220599    -0.09800
C522        C  0.91248257  0.46036308  0.08157879    -0.11400
C523        C  0.93203013  0.47167408  0.92581344    -0.09800
C524        C  0.91238685  0.47831919  0.89974376    -0.11400
C525        C  0.17076154  0.49217612  0.10579669    -0.13000
C526        C  0.20775042  0.49785496  0.10076860    -0.28200
H527        H  0.15227721  0.49119043  0.08200920     0.16000
H528        H  0.22590875  0.49823107  0.12487004     0.16600
C529        C  0.18065933  0.51152515  0.94561591    -0.13000
C530        C  0.21616125  0.51683003  0.95699284    -0.28200
H531        H  0.15962700  0.50297753  0.96580086     0.16000
H532        H  0.23742107  0.52442440  0.93659565     0.16600
C533        C  0.29126310  0.58430025  0.03001244    -0.13000
C534        C  0.32176303  0.58971498  0.00888787    -0.28200
H535        H  0.28058825  0.60762687  0.04608862     0.16000
H536        H  0.33473432  0.56603536  0.99526178     0.16600
C537        C  0.30354811  0.44838129  0.01167341    -0.13000
C538        C  0.31124096  0.41642091  0.03042390    -0.28200
H539        H  0.31185711  0.45083682  0.98265736     0.16000
H540        H  0.30341192  0.41302786  0.05936754     0.16600
C541        C  0.08488392  0.80729258  0.50557980    -0.13000
C542        C  0.09209308  0.83715430  0.48346616    -0.28200
H543        H  0.10507003  0.80017321  0.52703384     0.16000
H544        H  0.07124570  0.84582061  0.46325953     0.16600
C545        C  0.94182716  0.78755018  0.49645757    -0.13000
C546        C  0.92903541  0.82290955  0.49209798    -0.28200
H547        H  0.92188872  0.76455865  0.49826675     0.16000
H548        H  0.94895082  0.84585667  0.48941711     0.16600
C549        C  0.01551020  0.71775982  0.42351233    -0.13000
C550        C  0.99317207  0.68776706  0.41868835    -0.28200
H551        H  0.03096880  0.72895507  0.39976403     0.16000
H552        H  0.97976013  0.67435905  0.44248433     0.16600
C553        C  0.01858115  0.70217071  0.59241232    -0.13000
C554        C  0.00990624  0.69700789  0.55627977    -0.28200
H555        H  0.03013296  0.72920725  0.60024970     0.16000
H556        H  0.99465090  0.67211139  0.54782406     0.16600
C557        C  0.80523036  0.06453679  0.49174877    -0.13000
C558        C  0.79801499  0.09798801  0.50762803    -0.28200
H559        H  0.82780542  0.06211973  0.47167317     0.16000
H560        H  0.77300942  0.10056348  0.52462400     0.16600
C561        C  0.81332378  0.93223303  0.48654644    -0.13000
C562        C  0.80937375  0.89625503  0.49826272    -0.28200
H563        H  0.83656075  0.94023270  0.46860957     0.16000
H564        H  0.78373261  0.88811404  0.51261527     0.16600
C565        C  0.72188390  0.99402235  0.42315786    -0.13000
C566        C  0.68632662  0.00220151  0.41336659    -0.28200
H567        H  0.74216248  0.98726935  0.40172355     0.16000
H568        H  0.66690612  0.01101020  0.43478490     0.16600
C569        C  0.71028876  0.98709801  0.56545357    -0.13000
C570        C  0.68300553  0.01118940  0.57501371    -0.28200
H571        H  0.71621725  0.96369913  0.58400262     0.16000
H572        H  0.67556849  0.03368916  0.55593500     0.16600
C573        C  0.48657294  0.08106216  0.77076593    -0.13000
C574        C  0.47221067  0.08518520  0.80509993    -0.28200
H575        H  0.49840634  0.10543282  0.75658713     0.16000
H576        H  0.46352333  0.06036900  0.82068258     0.16600
C577        C  0.48917808  0.92335709  0.80950563    -0.13000
C578        C  0.46881763  0.94498678  0.78640307    -0.28200
H579        H  0.51766531  0.93171079  0.81627160     0.16000
H580        H  0.43950597  0.93825174  0.78165103     0.16600
C581        C  0.41381913  0.00461495  0.65489087    -0.13000
C582        C  0.42111973  0.00451674  0.69173210    -0.28200
H583        H  0.43692103  0.00540168  0.63523853     0.16000
H584        H  0.39787772  0.00534386  0.71121361     0.16600
C585        C  0.56485547  0.99306902  0.69565358    -0.13000
C586        C  0.57860795  0.01500408  0.66807916    -0.28200
H587        H  0.58159350  0.96972541  0.70555645     0.16000
H588        H  0.56141922  0.03747958  0.65701219     0.16600
C589        C  0.08952731  0.52857013  0.80321536    -0.13000
C590        C  0.09688802  0.50915708  0.83468394    -0.28200
H591        H  0.10839446  0.55111079  0.79472625     0.16000
H592        H  0.07706623  0.48781849  0.84404820     0.16600
C593        C  0.94783607  0.50968864  0.78799600    -0.13000
C594        C  0.93754031  0.50255079  0.82349790    -0.28200
H595        H  0.92644930  0.51291031  0.76685241     0.16000
H596        H  0.95920407  0.49703810  0.84386735     0.19600
C597        C  0.02600781  0.43479724  0.72131821    -0.13000
C598        C  0.01148092  0.42740637  0.68767616    -0.28200
H599        H  0.03829330  0.41205212  0.73732339     0.16000
H600        H  0.00202675  0.45031220  0.67004965     0.16600
C601        C  0.00655926  0.56834503  0.69671053    -0.13000
C602        C  0.02894754  0.59145449  0.67677407    -0.28200
H603        H  0.97644085  0.57258146  0.69630515     0.16000
H604        H  0.05897510  0.58667867  0.67615872     0.16600
C605        C  0.51223465  0.79129167  0.05839462    -0.13000
C606        C  0.49231068  0.82134485  0.06901088    -0.28200
H607        H  0.52934194  0.77723440  0.07915799     0.16000
H608        H  0.47763589  0.83801596  0.04835266     0.16600
C609        C  0.48510340  0.81557443  0.92628291    -0.13000
C610        C  0.48508856  0.80898289  0.88926883    -0.28200
H611        H  0.47308886  0.84106190  0.93723150     0.16000
H612        H  0.49323007  0.78139471  0.87966174     0.16600
C613        C  0.43272290  0.72027404  0.99244541    -0.13000
C614        C  0.42464138  0.68354486  0.99700652    -0.28200
H615        H  0.41042051  0.74075951  0.99348133     0.16000
H616        H  0.44717487  0.66336367  0.99724865     0.16600
C617        C  0.57195553  0.71052973  0.96107540    -0.13000
C618        C  0.58233948  0.67955741  0.97995672    -0.28200
H619        H  0.58805382  0.71926474  0.93678358     0.16000
H620        H  0.56536941  0.66991498  0.00333494     0.16600
C621        C  0.78408408  0.50285066  0.06127646    -0.13000
C622        C  0.80758410  0.47764163  0.07637886    -0.28200
H623        H  0.77646296  0.52720418  0.07754080     0.16000
H624        H  0.81713035  0.45416412  0.05989446     0.16600
C625        C  0.83178165  0.49141457  0.91345135    -0.13000
C626        C  0.79451586  0.49375682  0.91855781    -0.28200
H627        H  0.84941377  0.48646496  0.93742438     0.16000
H628        H  0.77660481  0.49722508  0.89446168     0.16600
C629        C  0.70073714  0.42667522  0.97769899    -0.13000
C630        C  0.67776954  0.40956702  0.00247401    -0.28200
H631        H  0.70458489  0.41467206  0.95030181     0.16000
H632        H  0.67134770  0.42287267  0.02877390     0.16600
C633        C  0.70122055  0.55972775  0.96356622    -0.13000
C634        C  0.67887418  0.58047142  0.98519369    -0.28200
H635        H  0.70321890  0.56552008  0.93391824     0.16000
H636        H  0.67436880  0.57215390  0.01401892     0.16600
loop_ 
_geom_bond_atom_site_label_1 
_geom_bond_atom_site_label_2 
_geom_bond_distance 
_geom_bond_site_symmetry_2 
_ccdc_geom_bond_type 
C1            C2   1.533       .  S
C1            C7   1.546   1_554  S
C1            C5   1.529       .  S
C1          C621   1.519       .  S
C2            H9   1.086       .  S
C2            C3   1.365   1_554  D
C3            C4   1.539       .  S
C3          C633   1.484       .  S
C4            C8   1.539       .  S
C4            C6   1.547       .  S
C4           H10   1.111       .  S
C5           H11   1.086       .  S
C5            C6   1.365   1_554  D
C6          C629   1.485       .  S
C7           H12   1.084       .  S
C7            C8   1.379       .  D
C8          C626   1.499       .  S
C13          C14   1.529       .  S
C13          C19   1.534       .  S
C13          C17   1.532   1_556  S
C13         C617   1.519       .  S
C14          H21   1.086       .  S
C14          C15   1.366       .  D
C15          C16   1.550       .  S
C15         C609   1.494       .  S
C16          C20   1.546       .  S
C16          C18   1.552   1_556  S
C16          H22   1.110       .  S
C17          H23   1.087       .  S
C17          C18   1.368       .  D
C18         C605   1.494       .  S
C19          H24   1.084       .  S
C19          C20   1.374       .  D
C20         C613   1.492       .  S
C25          C26   1.528       .  S
C25          C31   1.542       .  S
C25          C29   1.538       .  S
C25         C589   1.524       .  S
C26          H33   1.087       .  S
C26          C27   1.364       .  D
C27          C28   1.550   1_455  S
C27         C597   1.485       .  S
C28          C32   1.544       .  S
C28          C30   1.543   1_655  S
C28          H34   1.111       .  S
C29          H35   1.086       .  S
C29          C30   1.370       .  D
C30         C601   1.490       .  S
C31          H36   1.085       .  S
C31          C32   1.374   1_455  D
C32         C593   1.497       .  S
C37          C38   1.528       .  S
C37          C43   1.544   1_545  S
C37          C41   1.536   1_545  S
C37         C585   1.520   1_545  S
C38          H45   1.087       .  S
C38          C39   1.363       .  D
C39          C40   1.552       .  S
C39         C573   1.489       .  S
C40          C44   1.546       .  S
C40          C42   1.544   1_545  S
C40          H46   1.111       .  S
C41          H47   1.086       .  S
C41          C42   1.365       .  D
C42         C578   1.491       .  S
C43          H48   1.084       .  S
C43          C44   1.376   1_565  D
C44         C582   1.497       .  S
C49          C50   1.533       .  S
C49          C55   1.540       .  S
C49          C53   1.530   1_565  S
C49         C569   1.522       .  S
C50          H57   1.085       .  S
C50          C51   1.367       .  D
C51          C52   1.548       .  S
C51         C561   1.499       .  S
C52          C56   1.548       .  S
C52          C54   1.551   1_565  S
C52          H58   1.111       .  S
C53          H59   1.085       .  S
C53          C54   1.371       .  D
C54         C557   1.502       .  S
C55          H60   1.085       .  S
C55          C56   1.376       .  D
C56         C565   1.499       .  S
C61          C62   1.535       .  S
C61          C67   1.544       .  S
C61          C65   1.530       .  S
C61         C541   1.526       .  S
C62          H69   1.085       .  S
C62          C63   1.369       .  D
C63          C64   1.546   1_455  S
C63         C554   1.504       .  S
C64          C68   1.547       .  S
C64          C66   1.548   1_655  S
C64          H70   1.110       .  S
C65          H71   1.087       .  S
C65          C66   1.364       .  D
C66         C549   1.486       .  S
C67          H72   1.084       .  S
C67          C68   1.377   1_455  D
C68         C545   1.496       .  S
C73          C74   1.527       .  S
C73          C79   1.549       .  S
C73          C77   1.526       .  S
C73         C526   1.517       .  S
C74          H81   1.084       .  S
C74          C75   1.367       .  D
C75          C76   1.547       .  S
C75         C537   1.498       .  S
C76          C80   1.541   1_554  S
C76          C78   1.548       .  S
C76          H82   1.110   1_554  S
C77          H83   1.087       .  S
C77          C78   1.358       .  D
C78         C533   1.484       .  S
C79          H84   1.082       .  S
C79          C80   1.380   1_554  D
C80         C530   1.497       .  S
O85          V93   1.895   1_656  S
O85          C95   1.261       .  A
O86          V93   1.898       .  S
O86          C96   1.263       .  A
O87          V93   1.897   1_655  S
O87          C97   1.261       .  A
O88          V93   1.894   1_556  S
O88          C98   1.261       .  A
O89          V94   1.888   1_456  S
O89          C98   1.260       .  A
O90          V94   1.886       .  S
O90          C97   1.260       .  A
O91          V94   1.886   1_455  S
O91          C96   1.259       .  A
O92          V94   1.880   1_556  S
O92          C95   1.258       .  A
V93          V94   2.093   1_455  T
C95         C523   1.416       .  S
C96         C517   1.423       .  S
C97         C522   1.421       .  S
C98         C519   1.422       .  S
N99         C103   1.348       .  A
N99         C100   1.350       .  A
N99         C524   1.396       .  S
C100        C101   1.388       .  A
C100        C594   1.496       .  S
C101        C102   1.393       .  A
C101        H104   1.082       .  S
C102        C103   1.388       .  A
C102        H105   1.082       .  S
C103        C625   1.498       .  S
C106        C107   1.526   1_655  S
C106        C112   1.542       .  S
C106        C110   1.527       .  S
C106        C513   1.514       .  S
C107        H114   1.087       .  S
C107        C108   1.364       .  D
C108        C109   1.545   1_455  S
C108        C501   1.493       .  S
C109        C113   1.546       .  S
C109        C111   1.553       .  S
C109        H115   1.109       .  S
C110        H116   1.087       .  S
C110        C111   1.365       .  D
C111        C505   1.491       .  S
C112        H117   1.084       .  S
C112        C113   1.376       .  D
C113        C509   1.492       .  S
N118        C122   1.351       .  A
N118        C119   1.351       .  A
N118        C521   1.397       .  S
C119        C120   1.388       .  A
C119        C506   1.494       .  S
C120        C121   1.384       .  A
C120        H123   1.082       .  S
C121        C122   1.385       .  A
C121        H124   1.082       .  S
C122        C622   1.490       .  S
N125        C129   1.350       .  A
N125        C126   1.350       .  A
N125        C520   1.398       .  S
C126        C127   1.387       .  A
C126        C590   1.493       .  S
C127        C128   1.390       .  A
C127        H130   1.082       .  S
C128        C129   1.388       .  A
C128        H131   1.081       .  S
C129        C529   1.497       .  S
O132        V140   1.893       .  S
O132        C142   1.262   1_556  A
O133        V140   1.895       .  S
O133        C143   1.262   1_556  A
O134        V140   1.889       .  S
O134        C144   1.259   1_556  A
O135        V140   1.892       .  S
O135        C145   1.261   1_556  A
O136        V141   1.902       .  S
O136        C145   1.263       .  A
O137        V141   1.899       .  S
O137        C144   1.263       .  A
O138        V141   1.897       .  S
O138        C143   1.262       .  A
O139        V141   1.900       .  S
O139        C142   1.262       .  A
V140        V141   2.092   1_556  T
C142        C497   1.429       .  S
C143        C493   1.428       .  S
C144        C496   1.425       .  S
C145        C499   1.431       .  S
N146        C150   1.351       .  A
N146        C147   1.347       .  A
N146        C498   1.402       .  S
C147        C148   1.382       .  A
C147        C634   1.478       .  S
C148        C149   1.386       .  A
C148        H151   1.082       .  S
C149        C150   1.389       .  A
C149        H152   1.082       .  S
C150        C618   1.490       .  S
C153        C154   1.530       .  S
C153        C159   1.548       .  S
C153        C157   1.534       .  S
C153        C481   1.531       .  S
C154        H161   1.084       .  S
C154        C155   1.368       .  D
C155        C156   1.546   1_556  S
C155        C489   1.499       .  S
C156        C160   1.547       .  S
C156        C158   1.543   1_554  S
C156        H162   1.111       .  S
C157        H163   1.085       .  S
C157        C158   1.371       .  D
C158        C485   1.499       .  S
C159        H164   1.081       .  S
C159        C160   1.379   1_556  D
C160        C478   1.504       .  S
O165        V173   1.887   1_544  S
O165        C175   1.259       .  A
O166        V173   1.888       .  S
O166        C176   1.261       .  A
O167        V173   1.886   1_554  S
O167        C177   1.260       .  A
O168        V173   1.890   1_545  S
O168        C178   1.260       .  A
O169        V174   1.891       .  S
O169        C178   1.261       .  A
O170        V174   1.892   1_564  S
O170        C177   1.260       .  A
O171        V174   1.894   1_565  S
O171        C176   1.260       .  A
O172        V174   1.886   1_554  S
O172        C175   1.260       .  A
V173        V174   2.094   1_565  T
C175        C469   1.414       .  S
C176        C476   1.421       .  S
C177        C473   1.418       .  S
C178        C472   1.420       .  S
N179        C183   1.351       .  A
N179        C180   1.352       .  A
N179        C475   1.396       .  S
C180        C181   1.385       .  A
C180        C610   1.490       .  S
C181        C182   1.386       .  A
C181        H184   1.082       .  S
C182        C183   1.383       .  A
C182        H185   1.082       .  S
C183        C577   1.487       .  S
C186        C187   1.533       .  S
C186        C192   1.545       .  S
C186        C190   1.530   1_565  S
C186        C465   1.529       .  S
C187        H194   1.085       .  S
C187        C188   1.367       .  D
C188        C189   1.554   1_565  S
C188        C457   1.509       .  S
C189        C193   1.548       .  S
C189        C191   1.556       .  S
C189        H195   1.109       .  S
C190        H196   1.087       .  S
C190        C191   1.366       .  D
C191        C453   1.498       .  S
C192        H197   1.084       .  S
C192        C193   1.380   1_565  D
C193        C461   1.504       .  S
N198        C202   1.356       .  A
N198        C199   1.355       .  A
N198        C474   1.393       .  S
C199        C200   1.383       .  A
C199        C606   1.499       .  S
C200        C201   1.383       .  A
C200        H203   1.082       .  S
C201        C202   1.386       .  A
C201        H204   1.082       .  S
C202        C458   1.499       .  S
N205        C209   1.354       .  A
N205        C206   1.351       .  A
N205        C471   1.397       .  S
C206        C207   1.386       .  A
C206        C574   1.499       .  S
C207        C208   1.387       .  A
C207        H210   1.082       .  S
C208        C209   1.389       .  A
C208        H211   1.081       .  S
C209        C482   1.504       .  S
O212        V220   1.903       .  S
O212        C222   1.264       .  A
O213        V220   1.903       .  S
O213        C223   1.264   1_655  A
O214        V220   1.889       .  S
O214        C224   1.259       .  A
O215        V220   1.891       .  S
O215        C225   1.260   1_655  A
O216        V221   1.903       .  S
O216        C225   1.264       .  A
O217        V221   1.898       .  S
O217        C224   1.263   1_455  A
O218        V221   1.897       .  S
O218        C223   1.261       .  A
O219        V221   1.895       .  S
O219        C222   1.261   1_455  A
V220        V221   2.091   1_655  T
C222        C448   1.432       .  S
C223        C449   1.435       .  S
C224        C445   1.424       .  S
C225        C452   1.430       .  S
N226        C230   1.360       .  A
N226        C227   1.355       .  A
N226        C450   1.403       .  S
C227        C228   1.379       .  A
C227        C602   1.483       .  S
C228        C229   1.377       .  A
C228        H231   1.082       .  S
C229        C230   1.385       .  A
C229        H232   1.083       .  S
C230        C553   1.492       .  S
O233        V241   1.897       .  S
O233        C243   1.261       .  A
O234        V241   1.898       .  S
O234        C244   1.262       .  A
O235        V241   1.902       .  S
O235        C245   1.263       .  A
O236        V241   1.893       .  S
O236        C246   1.262       .  A
O237        V242   1.881   1_565  S
O237        C246   1.257   1_565  A
O238        V242   1.883       .  S
O238        C245   1.259       .  A
O239        V242   1.886       .  S
O239        C244   1.260       .  A
O240        V242   1.885       .  S
O240        C243   1.260       .  A
V241        V242   2.093       .  T
C243        C439   1.421       .  S
C244        C443   1.423       .  S
C245        C441   1.424       .  S
C246        C438   1.415       .  S
N247        C251   1.353       .  A
N247        C248   1.352       .  A
N247        C442   1.399       .  S
C248        C249   1.386   1_545  A
C248        C586   1.493       .  S
C249        C250   1.383       .  A
C249        H252   1.082       .  S
C250        C251   1.387   1_565  A
C250        H253   1.082       .  S
C251        C570   1.494       .  S
C254        C255   1.535       .  S
C254        C260   1.540       .  S
C254        C258   1.531       .  S
C254        C421   1.527       .  S
C255        H262   1.086       .  S
C255        C256   1.367       .  D
C256        C257   1.550       .  S
C256        C429   1.506       .  S
C257        C261   1.553   1_545  S
C257        C259   1.558       .  S
C257        H263   1.110   1_545  S
C258        H264   1.086       .  S
C258        C259   1.367       .  D
C259        C434   1.499       .  S
C260        H265   1.084       .  S
C260        C261   1.376   1_545  D
C261        C425   1.503       .  S
O266        V274   1.896   1_455  S
O266        C276   1.261       .  A
O267        V274   1.895   1_565  S
O267        C277   1.262       .  A
O268        V274   1.896       .  S
O268        C278   1.262       .  A
O269        V274   1.894   1_465  S
O269        C279   1.261       .  A
O270        V275   1.892   1_465  S
O270        C279   1.261       .  A
O271        V275   1.894       .  S
O271        C278   1.261       .  A
O272        V275   1.894   1_565  S
O272        C277   1.261       .  A
O273        V275   1.892   1_455  S
O273        C276   1.261       .  A
V274        V275   2.092       .  T
C276        C414   1.425       .  S
C277        C419   1.425       .  S
C278        C418   1.427       .  S
C279        C416   1.424       .  S
N280        C284   1.357       .  A
N280        C281   1.355       .  A
N280        C420   1.399       .  S
C281        C282   1.383       .  A
C281        C562   1.493       .  S
C282        C283   1.382       .  A
C282        H285   1.082       .  S
C283        C284   1.387       .  A
C283        H286   1.081       .  S
C284        C546   1.500       .  S
C287        C288   1.536       .  S
C287        C293   1.539       .  S
C287        C291   1.531       .  S
C287        C402   1.523       .  S
C288        H295   1.085       .  S
C288        C289   1.369       .  D
C289        C290   1.543   1_655  S
C289        C405   1.500       .  S
C290        C294   1.548       .  S
C290        C292   1.546   1_455  S
C290        H296   1.111       .  S
C291        H297   1.085       .  S
C291        C292   1.371       .  D
C292        C409   1.495       .  S
C293        H298   1.084       .  S
C293        C294   1.376   1_655  D
C294        C397   1.499       .  S
N299        C303   1.357       .  A
N299        C300   1.358       .  A
N299        C417   1.400       .  S
C300        C301   1.384       .  A
C300        C558   1.493       .  S
C301        C302   1.379       .  A
C301        H304   1.082       .  S
C302        C303   1.383       .  A
C302        H305   1.082       .  S
C303        C401   1.493       .  S
N306        C310   1.349       .  A
N306        C307   1.355       .  A
N306        C415   1.399       .  S
C307        C308   1.389       .  A
C307        C426   1.500       .  S
C308        C309   1.390       .  A
C308        H311   1.081       .  S
C309        C310   1.385       .  A
C309        H312   1.082       .  S
C310        C542   1.494       .  S
N313        C317   1.356       .  A
N313        C314   1.355       .  A
N313        C444   1.397       .  S
C314        C315   1.384       .  A
C314        C430   1.493       .  S
C315        C316   1.382   1_545  A
C315        H318   1.082       .  S
C316        C317   1.386   1_565  A
C316        H319   1.081       .  S
C317        C581   1.500       .  S
N320        C324   1.358       .  A
N320        C321   1.356       .  A
N320        C451   1.402       .  S
C321        C322   1.385       .  A
C321        C598   1.494       .  S
C322        C323   1.377       .  A
C322        H325   1.082       .  S
C323        C324   1.383       .  A
C323        H326   1.082   1_455  S
C324        C406   1.490   1_455  S
N327        C331   1.354       .  A
N327        C328   1.352       .  A
N327        C413   1.400       .  S
C328        C329   1.387       .  A
C328        C422   1.496       .  S
C329        C330   1.388       .  A
C329        H332   1.082       .  S
C330        C331   1.387       .  A
C330        H333   1.081       .  S
C331        C398   1.498       .  S
N334        C338   1.354       .  A
N334        C335   1.351       .  A
N334        C440   1.397       .  S
C335        C336   1.387   1_545  A
C335        C466   1.499       .  S
C336        C337   1.390       .  A
C336        H339   1.082       .  S
C337        C338   1.387   1_565  A
C337        H340   1.081       .  S
C338        C566   1.499       .  S
N341        C345   1.347       .  A
N341        C342   1.350       .  A
N341        C446   1.399       .  S
C342        C343   1.388       .  A
C342        C550   1.488       .  S
C343        C344   1.383       .  A
C343        H346   1.082       .  S
C344        C345   1.384       .  A
C344        H347   1.082       .  S
C345        C514   1.482       .  S
N348        C352   1.354       .  A
N348        C349   1.358       .  A
N348        C500   1.402   1_556  S
C349        C350   1.385       .  A
C349        C486   1.489       .  S
C350        C351   1.378       .  A
C350        H353   1.082       .  S
C351        C352   1.380       .  A
C351        H354   1.082       .  S
C352        C630   1.482   1_556  S
N355        C359   1.352       .  A
N355        C356   1.348       .  A
N355        C470   1.393       .  S
C356        C357   1.387       .  A
C356        C454   1.500       .  S
C357        C358   1.393       .  A
C357        H360   1.082       .  S
C358        C359   1.388       .  A
C358        H361   1.081       .  S
C359        C477   1.501       .  S
N362        C366   1.350       .  A
N362        C363   1.345       .  A
N362        C495   1.400       .  S
C363        C364   1.386       .  A
C363        C534   1.485       .  S
C364        C365   1.388       .  A
C364        H367   1.082       .  S
C365        C366   1.388       .  A
C365        H368   1.081       .  S
C366        C614   1.487   1_554  S
N369        C373   1.354       .  A
N369        C370   1.355       .  A
N369        C518   1.397       .  S
C370        C371   1.382       .  A
C370        C502   1.488       .  S
C371        C372   1.377       .  A
C371        H374   1.082       .  S
C372        C373   1.388       .  A
C372        H375   1.080       .  S
C373        C525   1.497       .  S
N376        C380   1.357       .  A
N376        C377   1.355       .  A
N376        C447   1.404       .  S
C377        C378   1.381       .  A
C377        C410   1.486       .  S
C378        C379   1.379       .  A
C378        H381   1.082       .  S
C379        C380   1.388       .  A
C379        H382   1.081       .  S
C380        C510   1.496       .  S
N383        C387   1.349       .  A
N383        C384   1.351       .  A
N383        C437   1.394       .  S
C384        C385   1.388       .  A
C384        C462   1.503       .  S
C385        C386   1.395       .  A
C385        H388   1.081       .  S
C386        C387   1.388       .  A
C386        H389   1.082       .  S
C387        C433   1.502       .  S
N390        C394   1.352       .  A
N390        C391   1.355   1_554  A
N390        C494   1.400       .  S
C391        C392   1.383       .  A
C391        C490   1.485       .  S
C392        C393   1.379   1_556  A
C392        H395   1.082       .  S
C393        C394   1.380       .  A
C393        H396   1.082       .  S
C394        C538   1.478       .  S
C397        H399   1.084       .  S
C397        C398   1.351       .  D
C398        H400   1.083       .  S
C401        H403   1.086       .  S
C401        C402   1.350       .  D
C402        H404   1.087       .  S
C405        H407   1.084   1_655  S
C405        C406   1.350       .  D
C406        H408   1.085       .  S
C409        H411   1.085   1_655  S
C409        C410   1.349       .  D
C410        H412   1.085       .  S
C413        C414   1.200       .  T
C415        C416   1.199       .  T
C417        C418   1.201       .  T
C419        C420   1.201       .  T
C421        H423   1.087       .  S
C421        C422   1.348       .  D
C422        H424   1.086       .  S
C425        H427   1.085       .  S
C425        C426   1.354       .  D
C426        H428   1.083       .  S
C429        H431   1.085       .  S
C429        C430   1.355       .  D
C430        H432   1.086       .  S
C433        H435   1.086       .  S
C433        C434   1.346       .  D
C434        H436   1.086       .  S
C437        C438   1.194       .  T
C439        C440   1.198       .  T
C441        C442   1.200       .  T
C443        C444   1.199       .  T
C445        C446   1.200       .  T
C447        C448   1.204       .  T
C449        C450   1.205       .  T
C451        C452   1.203       .  T
C453        H455   1.087       .  S
C453        C454   1.345       .  D
C454        H456   1.085       .  S
C457        H459   1.084       .  S
C457        C458   1.358       .  D
C458        H460   1.085       .  S
C461        H463   1.085       .  S
C461        C462   1.350       .  D
C462        H464   1.083       .  S
C465        H467   1.086       .  S
C465        C466   1.348   1_565  D
C466        H468   1.086       .  S
C469        C470   1.194       .  T
C471        C472   1.197       .  T
C473        C474   1.196       .  T
C475        C476   1.198       .  T
C477        H479   1.082       .  S
C477        C478   1.350       .  D
C478        H480   1.085       .  S
C481        H483   1.085       .  S
C481        C482   1.352       .  D
C482        H484   1.082       .  S
C485        H487   1.084   1_556  S
C485        C486   1.349       .  D
C486        H488   1.084       .  S
C489        H491   1.085   1_556  S
C489        C490   1.351       .  D
C490        H492   1.083       .  S
C493        C494   1.202       .  T
C495        C496   1.200       .  T
C497        C498   1.202   1_554  T
C499        C500   1.204       .  T
C501        H503   1.082       .  S
C501        C502   1.352       .  D
C502        H504   1.087       .  S
C505        H507   1.086       .  S
C505        C506   1.344       .  D
C506        H508   1.084       .  S
C509        H511   1.083       .  S
C509        C510   1.351       .  D
C510        H512   1.083       .  S
C513        H515   1.088   1_655  S
C513        C514   1.340       .  D
C514        H516   1.086       .  S
C517        C518   1.199       .  T
C519        C520   1.198       .  T
C521        C522   1.197       .  T
C523        C524   1.195       .  T
C525        H527   1.082       .  S
C525        C526   1.345       .  D
C526        H528   1.084       .  S
C529        H531   1.083       .  S
C529        C530   1.345       .  D
C530        H532   1.085       .  S
C533        H535   1.087       .  S
C533        C534   1.337       .  D
C534        H536   1.085   1_554  S
C537        H539   1.086   1_554  S
C537        C538   1.349       .  D
C538        H540   1.082       .  S
C541        H543   1.087       .  S
C541        C542   1.346       .  D
C542        H544   1.086       .  S
C545        H547   1.083       .  S
C545        C546   1.352       .  D
C546        H548   1.084       .  S
C549        H551   1.086       .  S
C549        C550   1.343   1_455  D
C550        H552   1.085       .  S
C553        H555   1.086       .  S
C553        C554   1.350       .  D
C554        H556   1.085   1_455  S
C557        H559   1.084       .  S
C557        C558   1.353       .  D
C558        H560   1.084       .  S
C561        H563   1.084       .  S
C561        C562   1.353       .  D
C562        H564   1.085       .  S
C565        H567   1.085       .  S
C565        C566   1.351   1_565  D
C566        H568   1.084       .  S
C569        H571   1.086       .  S
C569        C570   1.348   1_565  D
C570        H572   1.086       .  S
C573        H575   1.086       .  S
C573        C574   1.344       .  D
C574        H576   1.086       .  S
C577        H579   1.086       .  S
C577        C578   1.346       .  D
C578        H580   1.086       .  S
C581        H583   1.084       .  S
C581        C582   1.351       .  D
C582        H584   1.084       .  S
C585        H587   1.086       .  S
C585        C586   1.347   1_565  D
C586        H588   1.086       .  S
C589        H591   1.086       .  S
C589        C590   1.349       .  D
C590        H592   1.086       .  S
C593        H595   1.085       .  S
C593        C594   1.349       .  D
C594        H596   1.084       .  S
C597        H599   1.086       .  S
C597        C598   1.345       .  D
C598        H600   1.086       .  S
C601        H603   1.086   1_455  S
C601        C602   1.345       .  D
C602        H604   1.086       .  S
C605        H607   1.087       .  S
C605        C606   1.347       .  D
C606        H608   1.086       .  S
C609        H611   1.084       .  S
C609        C610   1.353       .  D
C610        H612   1.087       .  S
C613        H615   1.084       .  S
C613        C614   1.348       .  D
C614        H616   1.083       .  S
C617        H619   1.086       .  S
C617        C618   1.346       .  D
C618        H620   1.086   1_556  S
C621        H623   1.087       .  S
C621        C622   1.346       .  D
C622        H624   1.086       .  S
C625        H627   1.083       .  S
C625        C626   1.345       .  D
C626        H628   1.085       .  S
C629        H631   1.086       .  S
C629        C630   1.348   1_556  D
C630        H632   1.086       .  S
C633        H635   1.086       .  S
C633        C634   1.342       .  D
C634        H636   1.087   1_556  S
