geometry optimzed in LAMMPS
_audit_creation_date              2020-11-30 
_audit_creation_method            'lammps2cif' 
_symmetry_space_group_name_H-M    'P1' 
_symmetry_Int_Tables_number       1 
_symmetry_cell_setting            triclinic 
loop_ 
_symmetry_equiv_pos_as_xyz 
  x,y,z 
_cell_length_a                    56.21501088138115 
_cell_length_b                    56.325177962560964 
_cell_length_c                    56.43576548003482 
_cell_angle_alpha                 90.57100698015942 
_cell_angle_beta                  90.18241563021084 
_cell_angle_gamma                 90.19944160376726 
loop_ 
_atom_site_label 
_atom_site_type_symbol 
_atom_site_fract_x 
_atom_site_fract_y 
_atom_site_fract_z 
_atom_site_charge 
C1          C  0.74394941  0.49678853  0.99029755    -0.02660
C2          C  0.49195310  0.74610654  0.98808903    -0.02660
C3          C  0.99265325  0.49404296  0.74093859    -0.02660
C4          C  0.48991275  0.99298495  0.73844492    -0.02660
C5          C  0.74083023  0.99868382  0.49616768    -0.02660
C6          C  0.98724322  0.74325748  0.49042680    -0.02660
C7          C  0.24239147  0.49568249  0.99123374    -0.02660
O8          O  0.97279117  0.64031818  0.97386736    -0.73110
O9          O  0.02108042  0.64029862  0.02660932    -0.74090
O10         O  0.02327325  0.63992522  0.97617277    -0.62710
O11         O  0.97081365  0.64082027  0.02422343    -0.71120
O12         O  0.96991874  0.60142390  0.02321280    -0.70680
O13         O  0.02318185  0.60051485  0.97667514    -0.61930
O14         O  0.01996038  0.60096125  0.02665968    -0.74440
O15         O  0.97334495  0.60094214  0.97328984    -0.73220
Cu16       Cu  0.99703436  0.64175455  0.00022536     1.04560
Cu17       Cu  0.99661579  0.59962249  0.99998705     1.04330
C18         C  0.96571049  0.62051923  0.96503299     0.93080
C19         C  0.02791663  0.62053574  0.03517767     0.92220
C20         C  0.03142655  0.62004147  0.96880407     0.84370
C21         C  0.96195614  0.62116784  0.03112477     0.90640
N22         N  0.88016780  0.51847424  0.82350852    -0.27460
N23         N  0.88754037  0.53965054  0.81665006    -0.35320
C24         C  0.90332589  0.53719801  0.79915610     0.00880
C25         C  0.90603979  0.51340368  0.79411912     0.06910
C26         C  0.89139037  0.50186690  0.81019929    -0.06190
H27         H  0.91348180  0.55175977  0.79192769     0.07570
H28         H  0.88954454  0.48290040  0.81245701     0.08770
Cu29       Cu  0.88069191  0.57161371  0.83293592     0.44170
Cu30       Cu  0.85596131  0.51414793  0.85148687     0.41990
Cu31       Cu  0.83759907  0.57313044  0.87405357     0.43880
N32         N  0.88091259  0.59774279  0.85845108    -0.34850
N33         N  0.86429427  0.59823779  0.87481167    -0.29100
C34         C  0.87277793  0.60966781  0.89410733    -0.05200
C35         C  0.89603940  0.61650825  0.88969796     0.07020
C36         C  0.90041256  0.60886881  0.86672751     0.00810
H37         H  0.86446303  0.60899105  0.91135654     0.08460
H38         H  0.91772414  0.60750264  0.85850069     0.07540
N39         N  0.82191551  0.54137183  0.88285746    -0.36290
N40         N  0.82974208  0.51989625  0.87739540    -0.28480
C41         C  0.81912718  0.50414347  0.89194561    -0.03710
C42         C  0.80391454  0.51647814  0.90716356     0.04900
C43         C  0.80606105  0.53988717  0.90034091     0.02990
H44         H  0.82358080  0.48552883  0.89238518     0.08090
H45         H  0.79809934  0.55523692  0.90877090     0.06930
C46         C  0.99429053  0.49231643  0.24376041    -0.02660
N47         N  0.83360170  0.51497049  0.10288264    -0.27460
N48         N  0.82590644  0.53678262  0.09926146    -0.35320
C49         C  0.81068851  0.53677169  0.08109192     0.00880
C50         C  0.80794070  0.51385912  0.07258601     0.06910
C51         C  0.82283646  0.50031469  0.08692977    -0.06190
H52         H  0.80264027  0.55269021  0.07415389     0.07570
H53         H  0.82550573  0.48134536  0.08617033     0.08770
Cu54       Cu  0.83743481  0.56744410  0.11553048     0.44170
Cu55       Cu  0.85910021  0.50782868  0.12917664     0.41990
Cu56       Cu  0.88153786  0.56463656  0.15532237     0.43880
N57         N  0.86092707  0.59511304  0.11875359    -0.34850
N58         N  0.87892659  0.59362156  0.13361388    -0.29100
C59         C  0.89725026  0.60636502  0.12521830    -0.05200
C60         C  0.89054946  0.61603609  0.10373384     0.07020
C61         C  0.86714418  0.60892905  0.10056760     0.00810
H62         H  0.91536081  0.60450709  0.13147464     0.08460
H63         H  0.85743088  0.60933384  0.08398828     0.07540
N64         N  0.88935991  0.53126589  0.16757731    -0.36290
N65         N  0.88333555  0.51072450  0.15754719    -0.28480
C66         C  0.89583665  0.49332693  0.16817789    -0.03710
C67         C  0.90986469  0.50362723  0.18579096     0.04900
C68         C  0.90522325  0.52752294  0.18485232     0.02990
H69         H  0.89532301  0.47479005  0.16299912     0.08090
H70         H  0.91416333  0.54146083  0.19481197     0.06930
N71         N  0.10399293  0.52206080  0.82814764    -0.27460
N72         N  0.09887720  0.54345856  0.82008578    -0.35320
C73         C  0.08066519  0.54194052  0.80475475     0.00880
C74         C  0.07378283  0.51856314  0.80292522     0.06910
C75         C  0.08890747  0.50626835  0.81788158    -0.06190
H76         H  0.07227413  0.55697930  0.79641645     0.07570
H77         H  0.08854937  0.48744562  0.82149262     0.08770
Cu78       Cu  0.11221077  0.57494888  0.83325623     0.44170
Cu79       Cu  0.13047617  0.51617353  0.85389249     0.41990
Cu80       Cu  0.15629744  0.57191143  0.87548577     0.43880
N81         N  0.11440024  0.59954507  0.86022295    -0.34850
N82         N  0.13096516  0.59806297  0.87671160    -0.29100
C83         C  0.12282000  0.60791934  0.89686157    -0.05200
C84         C  0.09978178  0.61549843  0.89300715     0.07020
C85         C  0.09530940  0.61051206  0.86934870     0.00810
H86         H  0.13104149  0.60538692  0.91401325     0.08460
H87         H  0.07803931  0.61059239  0.86083009     0.07540
N88         N  0.16907358  0.53896781  0.88409270    -0.36290
N89         N  0.15883058  0.51851261  0.87828571    -0.28480
C90         C  0.16865215  0.50128858  0.89162384    -0.03710
C91         C  0.18596754  0.51159878  0.90603810     0.04900
C92         C  0.18561177  0.53538065  0.90080273     0.02990
H93         H  0.16281829  0.48296872  0.89171559     0.08090
H94         H  0.19517863  0.54940247  0.91002859     0.06930
O95         O  0.51538231  0.47137000  0.09439684    -0.73110
O96         O  0.47177822  0.52714936  0.09178579    -0.74090
O97         O  0.52174810  0.52135196  0.09286794    -0.62710
O98         O  0.46556366  0.47750114  0.09335517    -0.71120
O99         O  0.46588574  0.47805253  0.13268638    -0.70680
O100        O  0.52035861  0.52401526  0.13207255    -0.61930
O101        O  0.47018276  0.52808625  0.13103788    -0.74440
O102        O  0.51596274  0.47374605  0.13370503    -0.73220
Cu103      Cu  0.49369720  0.49929119  0.09172038     1.04560
Cu104      Cu  0.49313155  0.50104956  0.13374710     1.04330
C105        C  0.52232451  0.46357972  0.11443098     0.93080
C106        C  0.46364635  0.53614379  0.11097503     0.92220
C107        C  0.52960117  0.53004688  0.11239049     0.84370
C108        C  0.45690055  0.47078845  0.11309651     0.90640
N109        N  0.60708165  0.66244417  0.00870780    -0.27460
N110        N  0.60351841  0.67201925  0.02991202    -0.35320
C111        C  0.58657415  0.68857315  0.02856163     0.00880
C112        C  0.57854819  0.68972175  0.00550215     0.06910
C113        C  0.59196780  0.67284951  0.99325641    -0.06190
H114        H  0.57905626  0.69760732  0.04379024     0.07570
H115        H  0.58968945  0.66738522  0.97495584     0.08770
Cu116      Cu  0.61485850  0.65833056  0.06158086     0.44170
Cu117      Cu  0.63062546  0.63364649  0.00339727     0.41990
Cu118      Cu  0.65888834  0.61788264  0.06017586     0.43880
N119        N  0.61696353  0.63284938  0.08725347    -0.34850
N120        N  0.63459690  0.61753167  0.08711609    -0.29100
C121        C  0.62759566  0.59760548  0.09797651    -0.05200
C122        C  0.60407975  0.60025632  0.10467835     0.07020
C123        C  0.59815621  0.62310265  0.09814340     0.00810
H124        H  0.63727632  0.58106017  0.09700275     0.08460
H125        H  0.58030298  0.63015207  0.09710099     0.07540
N126        N  0.66629138  0.60201531  0.02820721    -0.36290
N127        N  0.65560978  0.60598106  0.00767957    -0.28480
C128        C  0.66204579  0.58851111  0.99232380    -0.03710
C129        C  0.67679041  0.57274674  0.00422613     0.04900
C130        C  0.67922917  0.58219394  0.02667239     0.02990
H131        H  0.65553551  0.58672134  0.97433501     0.08090
H132        H  0.68886330  0.57455970  0.04135985     0.06930
C133        C  0.49051113  0.24336395  0.99274103    -0.02660
O134        O  0.63927844  0.02310402  0.97484051    -0.73110
O135        O  0.63754589  0.97023441  0.02221638    -0.74090
O136        O  0.63846998  0.97250585  0.97218408    -0.62710
O137        O  0.63850440  0.02067562  0.02512914    -0.71120
O138        O  0.59911292  0.02064609  0.02458803    -0.70680
O139        O  0.59896002  0.97339798  0.97151074    -0.61930
O140        O  0.59818097  0.97075271  0.02098712    -0.74440
O141        O  0.59984608  0.02381371  0.97482896    -0.73220
Cu142      Cu  0.63986322  0.99667864  0.99857394     1.04560
Cu143      Cu  0.59769004  0.99724919  0.99789379     1.04330
C144        C  0.61972206  0.03194834  0.96752350     0.93080
C145        C  0.61747559  0.96184672  0.02878054     0.92220
C146        C  0.61860917  0.96479249  0.96414609     0.84370
C147        C  0.61871430  0.02797431  0.03351807     0.90640
N148        N  0.51170091  0.88175414  0.82404202    -0.27460
N149        N  0.53281117  0.89011114  0.81788296    -0.35320
C150        C  0.53005784  0.90753157  0.80215851     0.00880
C151        C  0.50614313  0.91044417  0.79791722     0.06910
C152        C  0.49484037  0.89392828  0.81214700    -0.06190
H153        H  0.54440087  0.91843510  0.79550910     0.07570
H154        H  0.47587781  0.89178966  0.81458355     0.08770
Cu155      Cu  0.56464865  0.88231146  0.83398713     0.44170
Cu156      Cu  0.50758961  0.85550921  0.84993249     0.41990
Cu157      Cu  0.56530962  0.83605882  0.87342136     0.43880
N158        N  0.59027682  0.88031181  0.85989291    -0.34850
N159        N  0.59060801  0.86256982  0.87491699    -0.29100
C160        C  0.60271712  0.86929721  0.89440880    -0.05200
C161        C  0.61008129  0.89264880  0.89170719     0.07020
C162        C  0.60215616  0.89885175  0.86935784     0.00810
H163        H  0.60276067  0.85934922  0.91070872     0.08460
H164        H  0.60125832  0.91667001  0.86242892     0.07540
N165        N  0.53317189  0.82031313  0.88121960    -0.36290
N166        N  0.51201314  0.82824575  0.87469941    -0.28480
C167        C  0.49526345  0.81691574  0.88751767    -0.03710
C168        C  0.50660513  0.80099299  0.90234306     0.04900
C169        C  0.53049133  0.80371888  0.89786080     0.02990
H170        H  0.47643966  0.82079956  0.88695089     0.08090
H171        H  0.54500951  0.79577455  0.90756944     0.06930
C172        C  0.49003038  0.99371787  0.24482937    -0.02660
N173        N  0.51058940  0.82580054  0.10734695    -0.27460
N174        N  0.53228462  0.81785375  0.10291844    -0.35320
C175        C  0.53146803  0.80198106  0.08515217     0.00880
C176        C  0.50831984  0.79974720  0.07727763     0.06910
C177        C  0.49542531  0.81517612  0.09180984    -0.06190
H178        H  0.54709011  0.79429917  0.07700474     0.07570
H179        H  0.47679899  0.81962324  0.09007464     0.08770
Cu180      Cu  0.56389023  0.83325787  0.11342417     0.44170
Cu181      Cu  0.50375124  0.85281961  0.13270207     0.41990
Cu182      Cu  0.56070625  0.88110602  0.14876948     0.43880
N183        N  0.59068488  0.85826052  0.11299816    -0.34850
N184        N  0.58987836  0.87651551  0.12768018    -0.29100
C185        C  0.60322346  0.89422710  0.11912240    -0.05200
C186        C  0.61239071  0.88710856  0.09749790     0.07020
C187        C  0.60422375  0.86402001  0.09432725     0.00810
H188        H  0.60190643  0.91242743  0.12530288     0.08460
H189        H  0.60411463  0.85419975  0.07774740     0.07540
N190        N  0.52828478  0.89045699  0.16238513    -0.36290
N191        N  0.50730476  0.88074310  0.15778126    -0.28480
C192        C  0.49084060  0.89207364  0.17127484    -0.03710
C193        C  0.50226026  0.90997215  0.18440934     0.04900
C194        C  0.52583388  0.90816387  0.17801593     0.02990
H195        H  0.47220540  0.88727969  0.17185491     0.08090
H196        H  0.54049100  0.91890348  0.18456702     0.06930
N197        N  0.50651052  0.10242864  0.82940874    -0.27460
N198        N  0.52740415  0.09229395  0.82591728    -0.35320
C199        C  0.52515212  0.07460628  0.81016604     0.00880
C200        C  0.50180185  0.07328563  0.80274986     0.06910
C201        C  0.49032835  0.09140774  0.81521126    -0.06190
H202        H  0.53979717  0.06379507  0.80397740     0.07570
H203        H  0.47193000  0.09670669  0.81351139     0.08770
Cu204      Cu  0.55929359  0.10191055  0.84094522     0.44170
Cu205      Cu  0.50266151  0.13105171  0.85329377     0.41990
Cu206      Cu  0.56216553  0.15398233  0.87122551     0.43880
N207        N  0.58737121  0.10882125  0.86313119    -0.34850
N208        N  0.58816667  0.12865254  0.87564902    -0.29100
C209        C  0.60136162  0.12505911  0.89520298    -0.05200
C210        C  0.60917070  0.10171093  0.89487765     0.07020
C211        C  0.60031476  0.09218475  0.87398866     0.00810
H212        H  0.60165293  0.13699285  0.91034666     0.08460
H213        H  0.59928864  0.07345789  0.86960323     0.07540
N214        N  0.53012561  0.16932864  0.87995430    -0.36290
N215        N  0.50881966  0.15974806  0.87669574    -0.28480
C216        C  0.49357697  0.17013210  0.89209285    -0.03710
C217        C  0.50591691  0.18727737  0.90524843     0.04900
C218        C  0.52886954  0.18626541  0.89665584     0.02990
H219        H  0.47547443  0.16423283  0.89486994     0.08090
H220        H  0.54429427  0.19527823  0.90398226     0.06930
O221        O  0.09712713  0.52902207  0.52135690    -0.73110
O222        O  0.09834519  0.47770892  0.47210817    -0.74090
O223        O  0.09842883  0.47910910  0.52216811    -0.62710
O224        O  0.09695213  0.52776276  0.47125312    -0.71120
O225        O  0.13641597  0.52970349  0.47176373    -0.70680
O226        O  0.13795093  0.47939885  0.52170533    -0.61930
O227        O  0.13782386  0.47938127  0.47141328    -0.74440
O228        O  0.13651261  0.52981565  0.52212427    -0.73220
Cu229      Cu  0.09635329  0.50335943  0.49670785     1.04560
Cu230      Cu  0.13858071  0.50462377  0.49674749     1.04330
C231        C  0.11655762  0.53747149  0.52975738     0.93080
C232        C  0.11822093  0.47063799  0.46378315     0.92220
C233        C  0.11833616  0.47163845  0.53002243     0.84370
C234        C  0.11638956  0.53658905  0.46361964     0.90640
N235        N  0.01148204  0.66276178  0.60635719    -0.27460
N236        N  0.03193137  0.67414288  0.60365396    -0.35320
C237        C  0.03003036  0.68974533  0.58598858     0.00880
C238        C  0.00746073  0.68820003  0.57656000     0.06910
C239        C  0.99594753  0.67106861  0.59002758    -0.06190
H240        H  0.04469771  0.70014087  0.57924073     0.07570
H241        H  0.97818259  0.66415073  0.58717465     0.08770
Cu242      Cu  0.06402853  0.66386984  0.61766457     0.44170
Cu243      Cu  0.00760877  0.63469687  0.63090066     0.41990
Cu244      Cu  0.06471164  0.62084749  0.65966293     0.43880
N245        N  0.09129167  0.63973789  0.61903299    -0.34850
N246        N  0.09177952  0.62328726  0.63546199    -0.29100
C247        C  0.10351286  0.60426794  0.62705641    -0.05200
C248        C  0.11013722  0.60871552  0.60392076     0.07020
C249        C  0.10256477  0.63159888  0.59966315     0.00810
H250        H  0.10238800  0.58685910  0.63492892     0.08460
H251        H  0.10070182  0.63946822  0.58234236     0.07540
N252        N  0.03259488  0.60639059  0.66934200    -0.36290
N253        N  0.01210211  0.60928417  0.65807814    -0.28480
C254        C  0.99645930  0.59308033  0.66645953    -0.03710
C255        C  0.00782395  0.57982513  0.68379845     0.04900
C256        C  0.03055898  0.58880353  0.68503890     0.02990
H257        H  0.97845705  0.59069249  0.66002034     0.08090
H258        H  0.04511288  0.58196561  0.69551567     0.06930
O259        O  0.47797953  0.13731448  0.47650524    -0.73110
O260        O  0.52779101  0.13564157  0.52778219    -0.74090
O261        O  0.52830845  0.13628807  0.47744722    -0.62710
O262        O  0.47730807  0.13675522  0.52699666    -0.71120
O263        O  0.47708400  0.09735186  0.52657192    -0.70680
O264        O  0.52671749  0.09700164  0.47615467    -0.61930
O265        O  0.52712197  0.09624310  0.52613102    -0.74440
O266        O  0.47674805  0.09791894  0.47621798    -0.73220
Cu267      Cu  0.50284624  0.13790281  0.50224905     1.04560
Cu268      Cu  0.50184244  0.09577910  0.50127231     1.04330
C269        C  0.46997320  0.11778673  0.46788641     0.93080
C270        C  0.53532665  0.11556602  0.53495273     0.92220
C271        C  0.53531512  0.11652783  0.46865909     0.84370
C272        C  0.46951191  0.11705566  0.53492605     0.90640
N273        N  0.66164966  0.00319938  0.61205771    -0.27460
N274        N  0.67337032  0.02355973  0.61049296    -0.35320
C275        C  0.69084739  0.02130066  0.59454762     0.00880
C276        C  0.69016580  0.99859034  0.58527401     0.06910
C277        C  0.67128526  0.98755872  0.59656211    -0.06190
H278        H  0.70172808  0.03585729  0.58837239     0.07570
H279        H  0.66442174  0.96990935  0.59300979     0.08770
Cu280      Cu  0.66148904  0.05586377  0.62311720     0.44170
Cu281      Cu  0.63209859  0.99852788  0.63423519     0.41990
Cu282      Cu  0.61388533  0.05457932  0.66109510     0.43880
N283        N  0.63664703  0.08265321  0.62329255    -0.34850
N284        N  0.61826524  0.08194844  0.63769868    -0.29100
C285        C  0.60030256  0.09437040  0.62824831    -0.05200
C286        C  0.60746879  0.10285259  0.60647691     0.07020
C287        C  0.63093308  0.09565862  0.60428800     0.00810
H288        H  0.58212326  0.09330862  0.63441457     0.08460
H289        H  0.64152575  0.09618513  0.58833339     0.07540
N290        N  0.60159299  0.02191266  0.67159237    -0.36290
N291        N  0.60613789  0.00148384  0.66076257    -0.28480
C292        C  0.59149806  0.98470236  0.66966592    -0.03710
C293        C  0.57760901  0.99525230  0.68709890     0.04900
C294        C  0.58449712  0.01872983  0.68771296     0.02990
H295        H  0.59077356  0.96640555  0.66369419     0.08090
H296        H  0.57655736  0.03284577  0.69812318     0.06930
C297        C  0.23421658  0.99243886  0.49337278    -0.02660
O298        O  0.04133765  0.95769588  0.58770321    -0.73110
O299        O  0.98635595  0.00201346  0.58441208    -0.74090
O300        O  0.99135539  0.95248598  0.58535371    -0.62710
O301        O  0.03559603  0.00718191  0.58708938    -0.71120
O302        O  0.03884702  0.00625344  0.54791150    -0.70680
O303        O  0.99279235  0.95108593  0.54603800    -0.61930
O304        O  0.98887045  0.00088042  0.54515456    -0.74440
O305        O  0.04308262  0.95572019  0.54839763    -0.73220
Cu306      Cu  0.01367671  0.97977130  0.58744213     1.04560
Cu307      Cu  0.01605150  0.97840950  0.54541089     1.04330
C308        C  0.05079428  0.94964893  0.56873631     0.93080
C309        C  0.97912136  0.00863358  0.56410306     0.92220
C310        C  0.98426832  0.94373595  0.56563898     0.84370
C311        C  0.04389449  0.01577051  0.56801485     0.90640
N312        N  0.82868225  0.88678680  0.51002875    -0.27460
N313        N  0.82275914  0.89341803  0.53180966    -0.35320
C314        C  0.80872794  0.91256103  0.53095998     0.00880
C315        C  0.80542809  0.91847199  0.50762156     0.06910
C316        C  0.81810804  0.90172740  0.49464117    -0.06190
H317        H  0.80195147  0.92193645  0.54633159     0.07570
H318        H  0.81984873  0.90074630  0.47557439     0.08770
Cu319      Cu  0.83666751  0.87985471  0.56248423     0.44170
Cu320      Cu  0.85182693  0.85810071  0.50307684     0.41990
Cu321      Cu  0.86545045  0.82689517  0.55744379     0.43880
N322        N  0.86715969  0.87371776  0.58127480    -0.34850
N323        N  0.87881529  0.85364458  0.57849720    -0.29100
C324        C  0.90227048  0.85798022  0.58051209    -0.05200
C325        C  0.90553610  0.88202403  0.58459084     0.07020
C326        C  0.88278487  0.89125954  0.58562608     0.00810
H327        H  0.91573927  0.84576094  0.57430644     0.08460
H328        H  0.87830869  0.90988130  0.58441043     0.07540
N329        N  0.87443251  0.81455825  0.52447545    -0.36290
N330        N  0.87292298  0.82721616  0.50490199    -0.28480
C331        C  0.88838057  0.81809078  0.48892772    -0.03710
C332        C  0.89977804  0.79878272  0.49913062     0.04900
C333        C  0.89025353  0.79710401  0.52146496     0.02990
H334        H  0.89199447  0.82572253  0.47179976     0.08090
H335        H  0.89667837  0.78593795  0.53559355     0.06930
C336        C  0.98390723  0.24715605  0.48788204    -0.02660
N337        N  0.86668946  0.16554920  0.47553795    -0.27460
N338        N  0.88480782  0.15136471  0.47120081    -0.35320
C339        C  0.90486110  0.16406606  0.46970106     0.00880
C340        C  0.89958736  0.18745284  0.47430579     0.06910
C341        C  0.87506734  0.18801922  0.47763355    -0.06190
H342        H  0.92247080  0.15637096  0.46933569     0.07570
H343        H  0.86472471  0.20299339  0.48382152     0.08770
Cu344      Cu  0.88552204  0.11795525  0.48435288     0.44170
Cu345      Cu  0.83419165  0.14998977  0.48490996     0.41990
Cu346      Cu  0.84996304  0.11977328  0.53750461     0.43880
N347        N  0.89555599  0.10385519  0.51615394    -0.34850
N348        N  0.88356859  0.10562529  0.53620110    -0.29100
C349        C  0.89434458  0.09233311  0.55270736    -0.05200
C350        C  0.91406583  0.08206977  0.54236647     0.07020
C351        C  0.91451753  0.09007101  0.51941129     0.00810
H352        H  0.88694954  0.08835092  0.56989693     0.08460
H353        H  0.92656691  0.08460825  0.50548522     0.07540
N354        N  0.81825322  0.11401675  0.52026774    -0.36290
N355        N  0.81310198  0.12292000  0.49929976    -0.28480
C356        C  0.79590165  0.10931175  0.48918027    -0.03710
C357        C  0.78983065  0.09142073  0.50491020     0.04900
C358        C  0.80442698  0.09506963  0.52427917     0.02990
H359        H  0.78939260  0.11134348  0.47125873     0.08090
H360        H  0.80670224  0.08317531  0.53905045     0.06930
N361        N  0.16548605  0.86676399  0.50249323    -0.27460
N362        N  0.18156788  0.86644077  0.51968008    -0.35320
C363        C  0.19605642  0.88523687  0.51776428     0.00880
C364        C  0.18905759  0.89825010  0.49849010     0.06910
C365        C  0.16955672  0.88613585  0.48910467    -0.06190
H366        H  0.20891439  0.89061540  0.53110130     0.07570
H367        H  0.15806634  0.89202310  0.47493540     0.08770
Cu368      Cu  0.17743480  0.84867982  0.55085545     0.44170
Cu369      Cu  0.13643999  0.84287876  0.50136004     0.41990
Cu370      Cu  0.12983614  0.81089270  0.55686067     0.43880
N371        N  0.15138031  0.85517331  0.57527163    -0.34850
N372        N  0.13350002  0.84028283  0.57811436    -0.29100
C373        C  0.11405618  0.85261531  0.58421768    -0.05200
C374        C  0.11965703  0.87651147  0.58411612     0.07020
C375        C  0.14367196  0.87742226  0.57920013     0.00810
H376        H  0.09625348  0.84527220  0.58345357     0.08460
H377        H  0.15324311  0.89306654  0.57353175     0.07540
N378        N  0.10941291  0.80423738  0.52730556    -0.36290
N379        N  0.11029974  0.81661712  0.50748916    -0.28480
C380        C  0.09112256  0.81073276  0.49411881    -0.03710
C381        C  0.07759254  0.79433067  0.50647923     0.04900
C382        C  0.08985142  0.79056486  0.52723890     0.02990
H383        H  0.08673398  0.81864144  0.47727992     0.08090
H384        H  0.08424918  0.77968669  0.54191149     0.06930
N385        N  0.32062642  0.01370427  0.60587973    -0.27460
N386        N  0.31716670  0.03503451  0.59687827    -0.35320
C387        C  0.30046361  0.03387394  0.57999825     0.00880
C388        C  0.29230970  0.01084993  0.57811474     0.06910
C389        C  0.30576531  0.99828637  0.59456480    -0.06190
H390        H  0.29492835  0.04883845  0.56947612     0.07570
H391        H  0.30468215  0.97947889  0.59812424     0.08770
Cu392      Cu  0.33527007  0.06570664  0.60525036     0.44170
Cu393      Cu  0.34563110  0.00798659  0.63341819     0.41990
Cu394      Cu  0.36842684  0.06585126  0.65522604     0.43880
N395        N  0.36054068  0.09150837  0.61068645    -0.34850
N396        N  0.37380900  0.09132580  0.62993113    -0.29100
C397        C  0.39417919  0.10306460  0.62568979    -0.05200
C398        C  0.39365288  0.11104615  0.60252007     0.07020
C399        C  0.37181830  0.10364610  0.59372478     0.00810
H400        H  0.40963949  0.10242303  0.63713309     0.08460
H401        H  0.36662683  0.10316694  0.57524379     0.07540
N402        N  0.37575770  0.03369891  0.67043330    -0.36290
N403        N  0.37017703  0.01247696  0.66171253    -0.28480
C404        C  0.38452436  0.99630596  0.67212503    -0.03710
C405        C  0.39954326  0.00814082  0.68803169     0.04900
C406        C  0.39319283  0.03164620  0.68644007     0.02990
H407        H  0.38551714  0.97780345  0.66691181     0.08090
H408        H  0.40268928  0.04660055  0.69414484     0.06930
N409        N  0.00498523  0.32716697  0.60347184    -0.27460
N410        N  0.02595762  0.32228119  0.59399058    -0.35320
C411        C  0.02333264  0.30563524  0.57713845     0.00880
C412        C  0.99964684  0.29960276  0.57546832     0.06910
C413        C  0.98829901  0.31374791  0.59225294    -0.06190
H414        H  0.03761993  0.29916574  0.56603187     0.07570
H415        H  0.96943770  0.31430698  0.59594392     0.08770
Cu416      Cu  0.05773253  0.33964003  0.60004198     0.44170
Cu417      Cu  0.00079121  0.35206570  0.63116623     0.41990
Cu418      Cu  0.06000477  0.37549189  0.64778857     0.43880
N419        N  0.08514615  0.36369283  0.60378510    -0.34850
N420        N  0.08640173  0.37709624  0.62296693    -0.29100
C421        C  0.09996805  0.39617188  0.61857663    -0.05200
C422        C  0.10736403  0.39498280  0.59519529     0.07020
C423        C  0.09788654  0.37385180  0.58649428     0.00810
H424        H  0.10088057  0.41159747  0.63012651     0.08460
H425        H  0.09671120  0.36859280  0.56803312     0.07540
N426        N  0.02852527  0.38539094  0.66313167    -0.36290
N427        N  0.00685964  0.37783774  0.65773589    -0.28480
C428        C  0.99111484  0.39059967  0.67070795    -0.03710
C429        C  0.00369582  0.40736057  0.68420592     0.04900
C430        C  0.02722805  0.40316252  0.67886526     0.02990
H431        H  0.97206543  0.38788520  0.67019411     0.08090
H432        H  0.04252231  0.41296649  0.68542042     0.06930
N433        N  0.09678264  0.15893588  0.49750645    -0.27460
N434        N  0.09523456  0.17106214  0.51766260    -0.35320
C435        C  0.07763510  0.18688983  0.51631465     0.00880
C436        C  0.06704972  0.18487925  0.49439793     0.06910
C437        C  0.07960408  0.16697528  0.48270127    -0.06190
H438        H  0.07209832  0.19829271  0.53081371     0.07570
H439        H  0.07648088  0.16033267  0.46491159     0.08770
Cu440      Cu  0.11169518  0.16251483  0.54875733     0.44170
Cu441      Cu  0.12271723  0.13190438  0.49269293     0.41990
Cu442      Cu  0.15988260  0.12741709  0.54605815     0.43880
N443        N  0.11498968  0.13479026  0.57148502    -0.34850
N444        N  0.13391760  0.12112900  0.57055655    -0.29100
C445        C  0.12763622  0.09894746  0.57642475    -0.05200
C446        C  0.10343420  0.09850453  0.58076291     0.07020
C447        C  0.09612914  0.12170632  0.57791036     0.00810
H448        H  0.13857851  0.08356424  0.57283080     0.08460
H449        H  0.07795067  0.12735406  0.57524694     0.07540
N450        N  0.16770638  0.11125242  0.51436794    -0.36290
N451        N  0.15311234  0.10974104  0.49593324    -0.28480
C452        C  0.16059341  0.09158950  0.48190180    -0.03710
C453        C  0.18095224  0.08178980  0.49198142     0.04900
C454        C  0.18468145  0.09474772  0.51246862     0.02990
H455        H  0.15143224  0.08537663  0.46612551     0.08090
H456        H  0.19742663  0.09083249  0.52629049     0.06930
N457        N  0.66078034  0.01833922  0.37927281    -0.27460
N458        N  0.67077097  0.03940056  0.38291132    -0.35320
C459        C  0.68743991  0.03774600  0.39975568     0.00880
C460        C  0.68810666  0.01471311  0.40762802     0.06910
C461        C  0.67096627  0.00273906  0.39424626    -0.06190
H462        H  0.69648469  0.05286564  0.40767486     0.07570
H463        H  0.66495022  0.98466356  0.39667438     0.08770
Cu464      Cu  0.65718386  0.07170862  0.37325558     0.44170
Cu465      Cu  0.63130842  0.01308254  0.35665457     0.41990
Cu466      Cu  0.61031333  0.07127789  0.33693534     0.43880
N467        N  0.63303533  0.09897142  0.37489615    -0.34850
N468        N  0.61524542  0.09931397  0.35970822    -0.29100
C469        C  0.59702417  0.11123285  0.36931847    -0.05200
C470        C  0.60325628  0.11807998  0.39212803     0.07020
C471        C  0.62648591  0.11041645  0.39483059     0.00810
H472        H  0.57898433  0.10991410  0.36265776     0.08460
H473        H  0.63566793  0.10854039  0.41158862     0.07540
N474        N  0.59562980  0.03936657  0.32690590    -0.36290
N475        N  0.60222711  0.01793612  0.33362261    -0.28480
C476        C  0.58724199  0.00188499  0.32345809    -0.03710
C477        C  0.57033678  0.01414885  0.31026583     0.04900
C478        C  0.57643177  0.03771605  0.31302125     0.02990
H479        H  0.58883188  0.98283819  0.32511301     0.08090
H480        H  0.56760331  0.05278834  0.30518755     0.06930
N481        N  0.00815800  0.66307699  0.37571286    -0.27460
N482        N  0.02815187  0.67386472  0.38216511    -0.35320
C483        C  0.02347742  0.69043874  0.39864139     0.00880
C484        C  0.99947478  0.69013370  0.40323899     0.06910
C485        C  0.99014678  0.67246721  0.38853602    -0.06190
H486        H  0.03692268  0.70048520  0.40821262     0.07570
H487        H  0.97191001  0.66629879  0.38789477     0.08770
Cu488      Cu  0.06186114  0.66198387  0.37480989     0.44170
Cu489      Cu  0.00741870  0.63521493  0.35055057     0.41990
Cu490      Cu  0.06762605  0.62194766  0.32942883     0.43880
N491        N  0.08851702  0.63717136  0.37523908    -0.34850
N492        N  0.09083322  0.62179536  0.35767308    -0.29100
C493        C  0.10235504  0.60256436  0.36558507    -0.05200
C494        C  0.10707949  0.60579943  0.38952579     0.07020
C495        C  0.09850203  0.62821863  0.39485466     0.00810
H496        H  0.10380166  0.58612829  0.35562932     0.08460
H497        H  0.09586006  0.63549886  0.41246518     0.07540
N498        N  0.03700281  0.60854791  0.31431806    -0.36290
N499        N  0.01533291  0.61086954  0.32313522    -0.28480
C500        C  0.00115332  0.59428216  0.31280637    -0.03710
C501        C  0.01478838  0.58091445  0.29711020     0.04900
C502        C  0.03716130  0.59094714  0.29820480     0.02990
H503        H  0.98277934  0.59113535  0.31751504     0.08090
H504        H  0.05297235  0.58494417  0.28913500     0.06930
N505        N  0.60093200  0.33383446  0.00422184    -0.27460
N506        N  0.59627130  0.32494284  0.02534995    -0.35320
C507        C  0.57747925  0.31039657  0.02381065     0.00880
C508        C  0.56929953  0.30995859  0.00078026     0.06910
C509        C  0.58457998  0.32515995  0.98870899    -0.06190
H510        H  0.56920894  0.30204156  0.03889781     0.07570
H511        H  0.58312099  0.33059360  0.97043336     0.08770
Cu512      Cu  0.60852206  0.33718333  0.05760115     0.44170
Cu513      Cu  0.62807664  0.35912096  0.99850813     0.41990
Cu514      Cu  0.64409999  0.38484762  0.05620901     0.43880
N515        N  0.60803114  0.36137878  0.08512473    -0.34850
N516        N  0.62245783  0.37979823  0.08471759    -0.29100
C517        C  0.61348972  0.39729356  0.09821208    -0.05200
C518        C  0.59183354  0.38984599  0.10708934     0.07020
C519        C  0.58917275  0.36672678  0.09870320     0.00810
H520        H  0.61959864  0.41551056  0.09742132     0.08460
H521        H  0.57292527  0.35637459  0.09881229     0.07540
N522        N  0.65883184  0.39451858  0.02463991    -0.36290
N523        N  0.65439456  0.38551836  0.00336430    -0.28480
C524        C  0.66863542  0.39673008  0.98762478    -0.03710
C525        C  0.68203603  0.41391732  0.99982423     0.04900
C526        C  0.67502614  0.41173933  0.02309988     0.02990
H527        H  0.66942932  0.39235659  0.96894303     0.08090
H528        H  0.68139452  0.42198846  0.03816919     0.06930
N529        N  0.51247242  0.15232407  0.10216717    -0.27460
N530        N  0.53435051  0.15961087  0.09753961    -0.35320
C531        C  0.53402354  0.17460090  0.07937963     0.00880
C532        C  0.51087585  0.17758314  0.07184964     0.06910
C533        C  0.49747965  0.16328471  0.08693985    -0.06190
H534        H  0.54984474  0.18247219  0.07186476     0.07570
H535        H  0.47836176  0.16103307  0.08688559     0.08770
Cu536      Cu  0.56545922  0.14864518  0.11295469     0.44170
Cu537      Cu  0.50563175  0.12638148  0.12814104     0.41990
Cu538      Cu  0.56261814  0.10973507  0.15684407     0.43880
N539        N  0.59432408  0.12776069  0.11993936    -0.34850
N540        N  0.59318542  0.11232855  0.13724216    -0.29100
C541        C  0.60684605  0.09359192  0.13175003    -0.05200
C542        C  0.61657845  0.09707597  0.10950410     0.07020
C543        C  0.60881822  0.11937051  0.10299709     0.00810
H544        H  0.60506641  0.07655522  0.14028332     0.08460
H545        H  0.60876609  0.12600149  0.08506019     0.07540
N546        N  0.53014469  0.09448981  0.16373382    -0.36290
N547        N  0.50948844  0.09920816  0.15347195    -0.28480
C548        C  0.49351632  0.08265218  0.16051600    -0.03710
C549        C  0.50510656  0.06666904  0.17522419     0.04900
C550        C  0.52806231  0.07503684  0.17697443     0.02990
H551        H  0.47523343  0.08165806  0.15454263     0.08090
H552        H  0.54259983  0.06707024  0.18663645     0.06930
N553        N  0.32779604  0.60874330  0.00145238    -0.27460
N554        N  0.32060241  0.60149285  0.02249811    -0.35320
C555        C  0.30526501  0.58342722  0.01978562     0.00880
C556        C  0.30256582  0.57879291  0.99596328     0.06910
C557        C  0.31701619  0.59516775  0.98465138    -0.06190
H558        H  0.29740584  0.57365194  0.03421764     0.07570
H559        H  0.31985252  0.59674767  0.96578379     0.08770
Cu560      Cu  0.33431701  0.61258137  0.05456962     0.44170
Cu561      Cu  0.35270028  0.63631944  0.99761211     0.41990
Cu562      Cu  0.37050146  0.66203821  0.05522915     0.43880
N563        N  0.35946402  0.61762980  0.08061148    -0.34850
N564        N  0.37337020  0.63651229  0.08089795    -0.29100
C565        C  0.39336507  0.63148112  0.09292446    -0.05200
C566        C  0.39211261  0.60811359  0.10021927     0.07020
C567        C  0.37014669  0.60007897  0.09247448     0.00810
H568        H  0.40910673  0.64257297  0.09287472     0.08460
H569        H  0.36447135  0.58170977  0.09159550     0.07540
N570        N  0.37982326  0.67579413  0.02289382    -0.36290
N571        N  0.37572468  0.66549733  0.00207424    -0.28480
C572        C  0.38992014  0.67578479  0.98583399    -0.03710
C573        C  0.40312380  0.69349239  0.99707792     0.04900
C574        C  0.39618507  0.69293734  0.02042300     0.02990
H575        H  0.39150419  0.66993030  0.96759592     0.08090
H576        H  0.40436465  0.70252799  0.03504630     0.06930
N577        N  0.16209134  0.51272303  0.10804103    -0.27460
N578        N  0.16803870  0.53442870  0.10150299    -0.35320
C579        C  0.18418261  0.53342581  0.08425822     0.00880
C580        C  0.18962947  0.51003006  0.07960226     0.06910
C581        C  0.17493169  0.49715829  0.09476962    -0.06190
H582        H  0.19112002  0.54886759  0.07531384     0.07570
H583        H  0.17370060  0.47804326  0.09602569     0.08770
Cu584      Cu  0.15372467  0.56574411  0.11316201     0.44170
Cu585      Cu  0.13619091  0.50728474  0.13474864     0.41990
Cu586      Cu  0.11931914  0.56564053  0.16141780     0.43880
N587        N  0.13027176  0.59281590  0.11868312    -0.34850
N588        N  0.11636886  0.59267429  0.13738619    -0.29100
C589        C  0.09642845  0.60477103  0.13242326    -0.05200
C590        C  0.09784001  0.61263837  0.10927386     0.07020
C591        C  0.11979960  0.60511650  0.10135040     0.00810
H592        H  0.08049970  0.60405203  0.14309830     0.08460
H593        H  0.12534781  0.60428741  0.08301371     0.07540
N594        N  0.10830204  0.53309817  0.17342053    -0.36290
N595        N  0.11155751  0.51226494  0.16280855    -0.28480
C596        C  0.09542060  0.49680720  0.17167951    -0.03710
C597        C  0.08158622  0.50874458  0.18836966     0.04900
C598        C  0.09069114  0.53141350  0.18921211     0.02990
H599        H  0.09280667  0.47882003  0.16527248     0.08090
H600        H  0.08347080  0.54636675  0.19895072     0.06930
N601        N  0.01856160  0.33256201  0.38009800    -0.27460
N602        N  0.03957929  0.32479757  0.38722685    -0.35320
C603        C  0.03662988  0.31021169  0.40561027     0.00880
C604        C  0.01269600  0.30865940  0.41029095     0.06910
C605        C  0.00159277  0.32288633  0.39382181    -0.06190
H606        H  0.05095609  0.30211467  0.41546716     0.07570
H607        H  0.98274775  0.32641123  0.39230675     0.08770
Cu608      Cu  0.07192772  0.33744572  0.37590396     0.44170
Cu609      Cu  0.01424238  0.35709701  0.35308697     0.41990
Cu610      Cu  0.07039243  0.38198137  0.33359121     0.43880
N611        N  0.09636038  0.36460779  0.37596560    -0.34850
N612        N  0.09508831  0.38206875  0.36063506    -0.29100
C613        C  0.10510734  0.40159633  0.37027018    -0.05200
C614        C  0.11261008  0.39630769  0.39300015     0.07020
C615        C  0.10742379  0.37243396  0.39566078     0.00810
H616        H  0.10320521  0.41920862  0.36302707     0.08460
H617        H  0.10805824  0.36252867  0.41196293     0.07540
N618        N  0.03834921  0.38766757  0.31680338    -0.36290
N619        N  0.01751974  0.38037981  0.32485822    -0.28480
C620        C  0.00014646  0.39168666  0.31298650    -0.03710
C621        C  0.01071952  0.40625877  0.29642668     0.04900
C622        C  0.03484827  0.40334688  0.29944616     0.02990
H623        H  0.98139119  0.39046982  0.31705257     0.08090
H624        H  0.04881143  0.41368965  0.29130106     0.06930
N625        N  0.32835781  0.01580798  0.38815950    -0.27460
N626        N  0.32164678  0.03701226  0.39592958    -0.35320
C627        C  0.30523771  0.03459055  0.41286320     0.00880
C628        C  0.30114825  0.01081074  0.41610019     0.06910
C629        C  0.31603767  0.99919853  0.40022093    -0.06190
H630        H  0.29776725  0.04913561  0.42302574     0.07570
H631        H  0.31839281  0.98023018  0.39825059     0.08770
Cu632      Cu  0.33716962  0.06886508  0.38779918     0.44170
Cu633      Cu  0.35498767  0.01124102  0.36232426     0.41990
Cu634      Cu  0.37427950  0.06946115  0.34064688     0.43880
N635        N  0.36313431  0.09429448  0.38550952    -0.34850
N636        N  0.37768962  0.09453199  0.36729920    -0.29100
C637        C  0.39783310  0.10583452  0.37369011    -0.05200
C638        C  0.39590927  0.11293673  0.39722886     0.07020
C639        C  0.37349614  0.10541034  0.40399968     0.00810
H640        H  0.41405111  0.10528293  0.36342491     0.08460
H641        H  0.36718114  0.10394188  0.42201362     0.07540
N642        N  0.38272542  0.03743200  0.32495681    -0.36290
N643        N  0.37891792  0.01624958  0.33414215    -0.28480
C644        C  0.39347334  0.00051439  0.32319833    -0.03710
C645        C  0.40663752  0.01246781  0.30607685     0.04900
C646        C  0.39895370  0.03570062  0.30778425     0.02990
H647        H  0.39549236  0.98221563  0.32846238     0.08090
H648        H  0.40636361  0.05086482  0.29874379     0.06930
N649        N  0.37782317  0.33018195  0.00930664    -0.27460
N650        N  0.38671250  0.32635845  0.03064968    -0.35320
C651        C  0.40400484  0.31030201  0.02927733     0.00880
C652        C  0.40644162  0.30298331  0.00605050     0.06910
C653        C  0.38953957  0.31607975  0.99363891    -0.06190
H654        H  0.41434085  0.30451791  0.04435359     0.07570
H655        H  0.38566745  0.31513481  0.97488331     0.08770
Cu656      Cu  0.37779434  0.34265091  0.06194497     0.44170
Cu657      Cu  0.34992670  0.35450515  0.00413130     0.41990
Cu658      Cu  0.32937058  0.37654449  0.06289131     0.43880
N659        N  0.37369920  0.36704132  0.08864888    -0.34850
N660        N  0.35506100  0.38108040  0.08855892    -0.29100
C661        C  0.36047726  0.40119751  0.10041387    -0.05200
C662        C  0.38374394  0.39958792  0.10847053     0.07020
C663        C  0.39140756  0.37749551  0.10088267     0.00810
H664        H  0.34993777  0.41721308  0.09964705     0.08460
H665        H  0.40972009  0.37166347  0.10021144     0.07540
N666        N  0.31308943  0.38325503  0.03103677    -0.36290
N667        N  0.32144383  0.37815911  0.00967500    -0.28480
C668        C  0.31029632  0.39225976  0.99387834    -0.03710
C669        C  0.29417439  0.40653350  0.00605873     0.04900
C670        C  0.29644327  0.40003263  0.02940010     0.02990
H671        H  0.31506236  0.39355417  0.97537822     0.08090
H672        H  0.28875319  0.40906957  0.04454382     0.06930
C673        C  0.00389689  0.20521246  0.48136554    -0.26490
C674        C  0.00592303  0.22994226  0.48602443    -0.14560
C675        C  0.02944147  0.23925157  0.48905020     0.36070
C676        C  0.04911256  0.22415764  0.48949558    -0.25940
C677        C  0.04661201  0.19962198  0.48694599    -0.15170
C678        C  0.02382467  0.19010871  0.48217062     0.37150
N679        N  0.02024000  0.16508455  0.47915866    -0.89430
H680        H  0.98687001  0.19720593  0.47733281     0.18270
H681        H  0.06653272  0.23168203  0.49320550     0.18260
N682        N  0.03343883  0.26410347  0.49312632    -0.88450
H683        H  0.02621926  0.15657729  0.49443182     0.35640
H684        H  0.03057216  0.15932828  0.46486534     0.40730
H685        H  0.04482341  0.27031545  0.47992862     0.40350
H686        H  0.04201757  0.26629504  0.50947675     0.35240
C687        C  0.95372810  0.21666184  0.50181956    -0.26490
C688        C  0.95916511  0.23443182  0.48516919    -0.14560
C689        C  0.94097234  0.23979700  0.46800295     0.36070
C690        C  0.92104440  0.22471579  0.46561833    -0.25940
C691        C  0.91764314  0.20555004  0.48062008    -0.15170
C692        C  0.93352729  0.20229054  0.49970020     0.37150
N693        N  0.92961471  0.18451447  0.51727998    -0.89430
H694        H  0.96603423  0.21304339  0.51612649     0.18270
H695        H  0.90825584  0.22762620  0.45153699     0.18260
N696        N  0.94222791  0.26016807  0.45287612    -0.88450
H697        H  0.93030937  0.16771779  0.50936298     0.35640
H698        H  0.91267126  0.18701171  0.52445314     0.40730
H699        H  0.93955145  0.27534044  0.46321087     0.40350
H700        H  0.92855586  0.25998118  0.44027162     0.35240
C701        C  0.99783062  0.24917861  0.53187418    -0.26490
C702        C  0.98370436  0.25876289  0.51342113    -0.14560
C703        C  0.96849062  0.27785925  0.52002454     0.36070
C704        C  0.97224633  0.29023115  0.54159014    -0.25940
C705        C  0.98996287  0.28300453  0.55740782    -0.15170
C706        C  0.00151016  0.26130404  0.55333413     0.37150
N707        N  0.01768529  0.25211080  0.57076445    -0.89430
H708        H  0.00680816  0.23239321  0.52963378     0.18270
H709        H  0.96235242  0.30633436  0.54519994     0.18260
N710        N  0.94989595  0.28546078  0.50457700    -0.88450
H711        H  0.02512177  0.23608873  0.56498362     0.35640
H712        H  0.00779911  0.24831481  0.58593118     0.40730
H713        H  0.95252745  0.30342670  0.50085671     0.40350
H714        H  0.93378233  0.28389181  0.51363232     0.35240
C715        C  0.99354910  0.28915863  0.47123538    -0.26490
C716        C  0.98865706  0.26476848  0.46728848    -0.14560
C717        C  0.99088222  0.25594281  0.44359973     0.36070
C718        C  0.99729919  0.27109837  0.42523100    -0.25940
C719        C  0.00204019  0.29503264  0.42955086    -0.15170
C720        C  0.99994945  0.30432347  0.45276404     0.37150
N721        N  0.00521079  0.32873280  0.45852742    -0.89430
H722        H  0.99405645  0.29665706  0.48885250     0.18270
H723        H  0.99938933  0.26385876  0.40748394     0.18260
N724        N  0.98671285  0.23137682  0.43808445    -0.88450
H725        H  0.98964309  0.33636472  0.46518455     0.35640
H726        H  0.00974492  0.33843324  0.44354121     0.40730
H727        H  0.00222714  0.22438783  0.43063927     0.40350
H728        H  0.97322706  0.23026832  0.42531596     0.35240
C729        C  0.05413458  0.05336696  0.58848770    -0.26490
C730        C  0.05885111  0.03727749  0.56989774    -0.14560
C731        C  0.07793952  0.04170203  0.55441811     0.36070
C732        C  0.09230756  0.06183556  0.55835539    -0.25940
C733        C  0.08785361  0.07759712  0.57733038    -0.15170
C734        C  0.06826508  0.07360198  0.59222711     0.37150
N735        N  0.06326399  0.08959913  0.61158021    -0.89430
H736        H  0.03922981  0.05016414  0.60018071     0.18270
H737        H  0.10703442  0.06527601  0.54652145     0.18260
N738        N  0.08297899  0.02559863  0.53516737    -0.88450
H739        H  0.04918349  0.08316379  0.62176560     0.35640
H740        H  0.05734011  0.10554863  0.60440271     0.40730
H741        H  0.09748846  0.03164528  0.52534092     0.40350
H742        H  0.08807727  0.00941161  0.54250263     0.35240
C743        C  0.06905065  0.91152010  0.55706486    -0.26490
C744        C  0.07018674  0.93245305  0.57057973    -0.14560
C745        C  0.08876397  0.93580904  0.58704397     0.36070
C746        C  0.10505772  0.91747666  0.59097034    -0.25940
C747        C  0.10285796  0.89579386  0.57878942    -0.15170
C748        C  0.08525535  0.89315538  0.56098429     0.37150
N749        N  0.08394791  0.87204003  0.54664885    -0.89430
H750        H  0.05503577  0.90905331  0.54401927     0.18270
H751        H  0.11913022  0.91998333  0.60393561     0.18260
N752        N  0.09116763  0.95789067  0.59964133    -0.88450
H753        H  0.08584705  0.87687580  0.52891287     0.35640
H754        H  0.06703244  0.86456633  0.54868661     0.40730
H755        H  0.10793177  0.96497026  0.59584388     0.40350
H756        H  0.09053720  0.95438524  0.61778237     0.35240
C757        C  0.94392887  0.02284208  0.54287485    -0.26490
C758        C  0.95959306  0.02564969  0.56202560    -0.14560
C759        C  0.95793151  0.04589085  0.57694402     0.36070
C760        C  0.94173017  0.06387350  0.57110054    -0.25940
C761        C  0.92745676  0.06166161  0.55084347    -0.15170
C762        C  0.92781430  0.04062258  0.53724664     0.37150
N763        N  0.91211543  0.03750950  0.51738446    -0.89430
H764        H  0.94476382  0.00709497  0.53170181     0.18270
H765        H  0.94112540  0.08010290  0.58155708     0.18260
N766        N  0.97373388  0.04888164  0.59683380    -0.88450
H767        H  0.90187573  0.02227140  0.52019561     0.35640
H768        H  0.92245369  0.03463866  0.50226147     0.40730
H769        H  0.96903996  0.03620856  0.60940543     0.40350
H770        H  0.97114036  0.06543547  0.60495073     0.35240
C771        C  0.96830992  0.90674913  0.58206618    -0.26490
C772        C  0.96538897  0.92562677  0.56623954    -0.14560
C773        C  0.94300981  0.92895035  0.55509216     0.36070
C774        C  0.92420432  0.91372052  0.56072575    -0.25940
C775        C  0.92679545  0.89575955  0.57763145    -0.15170
C776        C  0.94933146  0.89180532  0.58781667     0.37150
N777        N  0.95316938  0.87361509  0.60494452    -0.89430
H778        H  0.98528355  0.90425715  0.59086205     0.18270
H779        H  0.90710572  0.91651570  0.55229264     0.18260
N780        N  0.93808769  0.94809418  0.53909084    -0.88450
H781        H  0.94966613  0.85715295  0.59698424     0.35640
H782        H  0.94125784  0.87616668  0.61892065     0.40730
H783        H  0.95279166  0.95894243  0.53627621     0.40350
H784        H  0.92517892  0.95889540  0.54696124     0.35240
C785        C  0.23063663  0.03716611  0.48840264    -0.26490
C786        C  0.21835983  0.01511110  0.48885046    -0.14560
C787        C  0.19319784  0.01591690  0.48456842     0.36070
C788        C  0.18148072  0.03813929  0.48385632    -0.25940
C789        C  0.19398374  0.05961419  0.48608419    -0.15170
C790        C  0.21903141  0.05898258  0.48714128     0.37150
N791        N  0.23341621  0.08015508  0.48720956    -0.89430
H792        H  0.24981069  0.03756900  0.49032308     0.18270
H793        H  0.16225160  0.03868077  0.48260712     0.18260
N794        N  0.17918344  0.99470217  0.48160614    -0.88450
H795        H  0.24099603  0.08206226  0.50406785     0.35640
H796        H  0.22338107  0.09531649  0.48386698     0.40730
H797        H  0.18367291  0.98679444  0.46545872     0.40350
H798        H  0.16106267  0.99865871  0.48046052     0.35240
C799        C  0.22517313  0.95017569  0.47637901    -0.26490
C800        C  0.22009575  0.96829894  0.49335027    -0.14560
C801        C  0.20318177  0.96228113  0.51137433     0.36070
C802        C  0.19178048  0.94014510  0.51096600    -0.25940
C803        C  0.19713229  0.92276274  0.49397939    -0.15170
C804        C  0.21382074  0.92797437  0.47625113     0.37150
N805        N  0.22078485  0.91080189  0.45856450    -0.89430
H806        H  0.23910297  0.95218921  0.46350617     0.18270
H807        H  0.17959723  0.93586249  0.52517785     0.18260
N808        N  0.19790422  0.97731617  0.53131181    -0.88450
H809        H  0.21638733  0.91774580  0.44201076     0.35640
H810        H  0.21124424  0.89496758  0.46004110     0.40730
H811        H  0.19381058  0.99446630  0.52598008     0.40350
H812        H  0.21225799  0.97741349  0.54305282     0.35240
C813        C  0.24142272  0.01295868  0.53443142    -0.26490
C814        C  0.24689978  0.99421274  0.51841098    -0.14560
C815        C  0.26389876  0.97716846  0.52674862     0.36070
C816        C  0.27779333  0.98217090  0.54701838    -0.25940
C817        C  0.27404919  0.00268131  0.56069598    -0.15170
C818        C  0.25426378  0.01705419  0.55529917     0.37150
N819        N  0.24613897  0.03565443  0.57089486    -0.89430
H820        H  0.22644130  0.02450403  0.53148558     0.18270
H821        H  0.29212108  0.97024556  0.55165672     0.18260
N822        N  0.26791635  0.95479262  0.51514049    -0.88450
H823        H  0.25016206  0.05193485  0.56309582     0.35640
H824        H  0.25438995  0.03504661  0.58746741     0.40730
H825        H  0.27215677  0.95718488  0.49737097     0.40350
H826        H  0.25261097  0.94437169  0.51650683     0.35240
C827        C  0.27747084  0.99847273  0.47714904    -0.26490
C828        C  0.25302617  0.99373542  0.47268553    -0.14560
C829        C  0.24571236  0.99360472  0.44842494     0.36070
C830        C  0.26228695  0.99688232  0.43019816    -0.25940
C831        C  0.28624671  0.00116545  0.43514039    -0.15170
C832        C  0.29397073  0.00181021  0.45893110     0.37150
N833        N  0.31832543  0.00653321  0.46541029    -0.89430
H834        H  0.28425370  0.00082599  0.49488726     0.18270
H835        H  0.25606271  0.99746454  0.41200794     0.18260
N836        N  0.22117929  0.99095505  0.44209514    -0.88450
H837        H  0.31890752  0.02306137  0.47399631     0.35640
H838        H  0.32936839  0.00760185  0.45062976     0.40730
H839        H  0.21951401  0.97634463  0.43062634     0.40350
H840        H  0.21593536  0.00609050  0.43288380     0.35240
C841        C  0.43352038  0.13395667  0.44943187    -0.26490
C842        C  0.45269303  0.11808998  0.44815083    -0.14560
C843        C  0.45434231  0.10226683  0.42849694     0.36070
C844        C  0.43576943  0.10141288  0.41193618    -0.25940
C845        C  0.41602700  0.11648184  0.41384902    -0.15170
C846        C  0.41521574  0.13328604  0.43256161     0.37150
N847        N  0.39618806  0.15000534  0.43475050    -0.89430
H848        H  0.43234868  0.14646776  0.46409917     0.18270
H849        H  0.43669223  0.08851651  0.39759113     0.18260
N850        N  0.47450344  0.08703514  0.42450524    -0.88450
H851        H  0.38026498  0.14080994  0.43728347     0.35640
H852        H  0.39497936  0.15948007  0.41895847     0.40730
H853        H  0.48847839  0.09100042  0.43606068     0.40350
H854        H  0.48118946  0.09082572  0.40768412     0.35240
C855        C  0.56857191  0.13603845  0.44712205    -0.26490
C856        C  0.55322544  0.11640434  0.44945956    -0.14560
C857        C  0.55461423  0.09751504  0.43282936     0.36070
C858        C  0.57086080  0.09900853  0.41415766    -0.25940
C859        C  0.58607945  0.11863954  0.41179737    -0.15170
C860        C  0.58511413  0.13732564  0.42861979     0.37150
N861        N  0.60041470  0.15779777  0.42750545    -0.89430
H862        H  0.56779135  0.15055175  0.45984517     0.18270
H863        H  0.57196570  0.08445785  0.40149315     0.18260
N864        N  0.53924115  0.07712952  0.43448589    -0.88450
H865        H  0.58962644  0.17263897  0.42492647     0.35640
H866        H  0.61185966  0.15691219  0.41300754     0.40730
H867        H  0.54507950  0.06715498  0.44888867     0.40350
H868        H  0.54105170  0.06610157  0.41958952     0.35240
C869        C  0.57309123  0.09866631  0.54858522    -0.26490
C870        C  0.55423124  0.11427323  0.55303363    -0.14560
C871        C  0.55366156  0.12717284  0.57471649     0.36070
C872        C  0.57207215  0.12408898  0.59121519    -0.25940
C873        C  0.59071882  0.10812466  0.58693460    -0.15170
C874        C  0.59113289  0.09512550  0.56535795     0.37150
N875        N  0.60908191  0.07750619  0.56094862    -0.89430
H876        H  0.57339863  0.08865769  0.53207695     0.18270
H877        H  0.57127898  0.13353090  0.60802634     0.18260
N878        N  0.53411141  0.14215174  0.58146672    -0.88450
H879        H  0.60700250  0.06992143  0.54407905     0.35640
H880        H  0.60648355  0.06380237  0.57304527     0.40730
H881        H  0.51991340  0.14104108  0.56959093     0.40350
H882        H  0.54023322  0.15969778  0.58162737     0.35240
C883        C  0.43178354  0.13224369  0.55173581    -0.26490
C884        C  0.45139794  0.11704909  0.55372373    -0.14560
C885        C  0.45314605  0.10190549  0.57347218     0.36070
C886        C  0.43489042  0.10155822  0.59017483    -0.25940
C887        C  0.41453317  0.11564086  0.58740268    -0.15170
C888        C  0.41316926  0.13151221  0.56828917     0.37150
N889        N  0.39265758  0.14640691  0.56553327    -0.89430
H890        H  0.43057722  0.14407091  0.53675144     0.18270
H891        H  0.43610464  0.08919617  0.60471113     0.18260
N892        N  0.47326066  0.08679368  0.57713250    -0.88450
H893        H  0.39432672  0.15691792  0.55045807     0.35640
H894        H  0.39217134  0.15802480  0.58008622     0.40730
H895        H  0.48869665  0.09720532  0.57696799     0.40350
H896        H  0.47406226  0.07432846  0.56333847     0.35240
C897        C  0.10144476  0.54901954  0.42474546    -0.26490
C898        C  0.11544575  0.55437137  0.44469168    -0.14560
C899        C  0.12738458  0.57657263  0.44612565     0.36070
C900        C  0.12528159  0.59248918  0.42725890    -0.25940
C901        C  0.11119738  0.58712376  0.40733457    -0.15170
C902        C  0.09905652  0.56516221  0.40621235     0.37150
N903        N  0.08334711  0.55955996  0.38690589    -0.89430
H904        H  0.09199922  0.53221960  0.42365394     0.18270
H905        H  0.13416096  0.60957367  0.42851267     0.18260
N906        N  0.14088763  0.58408290  0.46659844    -0.88450
H907        H  0.06635158  0.55660193  0.39377700     0.35640
H908        H  0.08914816  0.54376456  0.37897464     0.40730
H909        H  0.14003167  0.57179051  0.48023701     0.40350
H910        H  0.13294184  0.59948965  0.47331808     0.35240
C911        C  0.10475115  0.43132432  0.45022663    -0.26490
C912        C  0.11828759  0.45167586  0.44567810    -0.14560
C913        C  0.13068736  0.45347535  0.42391753     0.36070
C914        C  0.12954007  0.43451219  0.40763454    -0.25940
C915        C  0.11585422  0.41418633  0.41215366    -0.15170
C916        C  0.10321355  0.41273639  0.43368985     0.37150
N917        N  0.08780888  0.39305923  0.43846107    -0.89430
H918        H  0.09494359  0.42997306  0.46668044     0.18270
H919        H  0.13879599  0.43602647  0.39089215     0.18260
N920        N  0.14367653  0.47441021  0.41718745    -0.88450
H921        H  0.07059790  0.39955956  0.44102983     0.35640
H922        H  0.09342112  0.38524873  0.45424303     0.40730
H923        H  0.14208261  0.48806176  0.42966264     0.40350
H924        H  0.13586360  0.48085267  0.40169802     0.35240
C925        C  0.13321987  0.58713281  0.57340851    -0.26490
C926        C  0.11160382  0.59035075  0.58523338    -0.14560
C927        C  0.09155860  0.57647702  0.57847855     0.36070
C928        C  0.09395883  0.55934140  0.56062845    -0.25940
C929        C  0.11557176  0.55594344  0.54868126    -0.15170
C930        C  0.13542776  0.57022383  0.55501945     0.37150
N931        N  0.15761520  0.56784121  0.54264760    -0.89430
H932        H  0.14836312  0.59807293  0.57838877     0.18270
H933        H  0.07849772  0.54873248  0.55592197     0.18260
N934        N  0.06829468  0.57962938  0.58858924    -0.88450
H935        H  0.17046148  0.57927314  0.54989986     0.35640
H936        H  0.15480936  0.57337721  0.52523444     0.40730
H937        H  0.06728653  0.59434816  0.59983950     0.40350
H938        H  0.06442376  0.56459374  0.59860442     0.35240
C939        C  0.10251302  0.43747759  0.58504966    -0.26490
C940        C  0.11354964  0.41559740  0.58036756    -0.14560
C941        C  0.12821413  0.41315904  0.56027851     0.36070
C942        C  0.13060374  0.43232599  0.54467013    -0.25940
C943        C  0.11842180  0.45367660  0.54872627    -0.15170
C944        C  0.10477965  0.45652977  0.56957033     0.37150
N945        N  0.09318253  0.47844212  0.57579900    -0.89430
H946        H  0.09119467  0.43964435  0.60040836     0.18270
H947        H  0.14113450  0.43025093  0.52873266     0.18260
N948        N  0.14012021  0.39108427  0.55554913    -0.88450
H949        H  0.07483519  0.47575746  0.57417339     0.35640
H950        H  0.09790863  0.49229052  0.56459759     0.40730
H951        H  0.15225798  0.38834385  0.56931915     0.40350
H952        H  0.15004805  0.39215197  0.53995756     0.35240
C953        C  0.50609244  0.00701332  0.20454074    -0.26490
C954        C  0.48877509  0.01030461  0.22245361    -0.14560
C955        C  0.47110817  0.02803473  0.21781997     0.36070
C956        C  0.47586518  0.04587519  0.20105421    -0.25940
C957        C  0.49629847  0.04500418  0.18707957    -0.15170
C958        C  0.51023191  0.02433217  0.18735885     0.37150
N959        N  0.52951425  0.02147637  0.17105191    -0.89430
H960        H  0.51846616  0.99235556  0.20558334     0.18270
H961        H  0.46405238  0.06094828  0.19954424     0.18260
N962        N  0.44846488  0.02805933  0.22952493    -0.88450
H963        H  0.52667759  0.00573086  0.16147573     0.35640
H964        H  0.54522856  0.01960628  0.18080813     0.40730
H965        H  0.43928762  0.01282320  0.22394963     0.40350
H966        H  0.43816071  0.04252483  0.22430499     0.35240
C967        C  0.47254838  0.96197891  0.21666055    -0.26490
C968        C  0.49037587  0.96777246  0.23376254    -0.14560
C969        C  0.50915736  0.95086773  0.23628999     0.36070
C970        C  0.50955454  0.93035475  0.22218067    -0.25940
C971        C  0.49390702  0.92681840  0.20315816    -0.15170
C972        C  0.47449176  0.94255681  0.20084947     0.37150
N973        N  0.45750790  0.94088243  0.18182680    -0.89430
H974        H  0.45792058  0.97413410  0.21399112     0.18270
H975        H  0.52421599  0.91813659  0.22462781     0.18260
N976        N  0.52922231  0.95454673  0.25151938    -0.88450
H977        H  0.44090333  0.93727321  0.18929106     0.35640
H978        H  0.46127172  0.92699197  0.17018132     0.40730
H979        H  0.54464265  0.95482481  0.24119900     0.40350
H980        H  0.53034236  0.94027775  0.26318610     0.35240
C981        C  0.45086055  0.97987919  0.26551441    -0.26490
C982        C  0.46827816  0.99782697  0.26186349    -0.14560
C983        C  0.46578494  0.01919867  0.27576461     0.36070
C984        C  0.44678118  0.02160986  0.29146423    -0.25940
C985        C  0.42822598  0.00503631  0.29260255    -0.15170
C986        C  0.43044604  0.98362483  0.27948181     0.37150
N987        N  0.41235540  0.96549726  0.27913977    -0.89430
H988        H  0.45223392  0.96273256  0.25700219     0.18270
H989        H  0.44593582  0.03771619  0.30209616     0.18260
N990        N  0.48166972  0.03927756  0.27436442    -0.88450
H991        H  0.40671161  0.96331926  0.26157519     0.35640
H992        H  0.39729805  0.97066680  0.28849601     0.40730
H993        H  0.49175044  0.03874264  0.25908151     0.40350
H994        H  0.47132689  0.05449259  0.27206232     0.35240
C995        C  0.51372339  0.98713904  0.28335061    -0.26490
C996        C  0.51267263  0.99864727  0.26097518    -0.14560
C997        C  0.53169036  0.01491936  0.25614570     0.36070
C998        C  0.55098793  0.01700025  0.27165606    -0.25940
C999        C  0.55163549  0.00570027  0.29352597    -0.15170
C1000       C  0.53255635  0.99055922  0.29959159     0.37150
N1001       N  0.53112898  0.97885738  0.32206931    -0.89430
H1002       H  0.49960129  0.97502274  0.28825534     0.18270
H1003       H  0.56516003  0.02923469  0.26707569     0.18260
N1004       N  0.53131864  0.03121701  0.23690897    -0.88450
H1005       H  0.51606035  0.98530789  0.33079556     0.35640
H1006       H  0.54559272  0.98301202  0.33293017     0.40730
H1007       H  0.54667858  0.02863139  0.22680085     0.40350
H1008       H  0.53182206  0.04853563  0.24376253     0.35240
C1009       C  0.63821322  0.06004312  0.05738615    -0.26490
C1010       C  0.61852718  0.04493707  0.05373447    -0.14560
C1011       C  0.59918515  0.04606361  0.06966580     0.36070
C1012       C  0.59998339  0.06228232  0.08860040    -0.25940
C1013       C  0.61928768  0.07786557  0.09179455    -0.15170
C1014       C  0.63874510  0.07666627  0.07605833     0.37150
N1015       N  0.65908062  0.09210762  0.07824195    -0.89430
H1016       H  0.65314768  0.05932728  0.04530659     0.18270
H1017       H  0.58480656  0.06355546  0.10033993     0.18260
N1018       N  0.57881328  0.03076239  0.06677209    -0.88450
H1019       H  0.67394640  0.08144739  0.08129480     0.35640
H1020       H  0.65769132  0.10341011  0.09293258     0.40730
H1021       H  0.56905653  0.03699317  0.05232677     0.40350
H1022       H  0.56749967  0.03220199  0.08138600     0.35240
C1023       C  0.60108302  0.06836789  0.95202830    -0.26490
C1024       C  0.61962817  0.05180356  0.95056846    -0.14560
C1025       C  0.63637155  0.05352749  0.93203288     0.36070
C1026       C  0.63331019  0.07096501  0.91462075    -0.25940
C1027       C  0.61427269  0.08693536  0.91569367    -0.15170
C1028       C  0.59811109  0.08583029  0.93475525     0.37150
N1029       N  0.57801753  0.10154817  0.93585635    -0.89430
H1030       H  0.58832183  0.06716022  0.96632666     0.18270
H1031       H  0.64538305  0.07166178  0.89970627     0.18260
N1032       N  0.65552114  0.03678184  0.93010349    -0.88450
H1033       H  0.56810427  0.09860259  0.95120141     0.35640
H1034       H  0.56683262  0.09735588  0.92156617     0.40730
H1035       H  0.66732845  0.04027856  0.94406004     0.40350
H1036       H  0.66514034  0.03953535  0.91453750     0.35240
C1037       C  0.63617133  0.93757781  0.06042352    -0.26490
C1038       C  0.61659134  0.94167667  0.04544117    -0.14560
C1039       C  0.59666180  0.92628085  0.04650389     0.36070
C1040       C  0.59679069  0.90749339  0.06257149    -0.25940
C1041       C  0.61591809  0.90405886  0.07813459    -0.15170
C1042       C  0.63598970  0.91913799  0.07693845     0.37150
N1043       N  0.65623030  0.91655799  0.09233820    -0.89430
H1044       H  0.65156770  0.94918209  0.05976574     0.18270
H1045       H  0.58123035  0.89615597  0.06385573     0.18260
N1046       N  0.57629059  0.92966457  0.03143824    -0.88450
H1047       H  0.67095931  0.91281642  0.08168554     0.35640
H1048       H  0.65425339  0.90209512  0.10358811     0.40730
H1049       H  0.56714158  0.94449601  0.03788256     0.40350
H1050       H  0.56444973  0.91538709  0.03279986     0.35240
C1051       C  0.63075079  0.94758444  0.92554170    -0.26490
C1052       C  0.61818088  0.94515361  0.94680550    -0.14560
C1053       C  0.60490410  0.92414936  0.95086803     0.36070
C1054       C  0.60331801  0.90694609  0.93291058    -0.25940
C1055       C  0.61498059  0.90981106  0.91116212    -0.15170
C1056       C  0.62914885  0.93014124  0.90765802     0.37150
N1057       N  0.64179639  0.93319505  0.88591168    -0.89430
H1058       H  0.64125716  0.96343319  0.92249985     0.18270
H1059       H  0.59223121  0.89150615  0.93589025     0.18260
N1060       N  0.59284743  0.91952579  0.97283782    -0.88450
H1061       H  0.65989041  0.93492085  0.88993774     0.35640
H1062       H  0.63614245  0.94905924  0.87828928     0.40730
H1063       H  0.59647539  0.93249558  0.98563513     0.40350
H1064       H  0.59978823  0.90380449  0.97967667     0.35240
C1065       C  0.48285466  0.20535803  0.01642661    -0.26490
C1066       C  0.49615318  0.22677928  0.01439772    -0.14560
C1067       C  0.51510457  0.23004514  0.03109108     0.36070
C1068       C  0.51748668  0.21471683  0.05025512    -0.25940
C1069       C  0.50384411  0.19402427  0.05246520    -0.15170
C1070       C  0.48650679  0.18903643  0.03483191     0.37150
N1071       N  0.47316913  0.16725896  0.03395761    -0.89430
H1072       H  0.46918624  0.20130723  0.00340264     0.18270
H1073       H  0.53141660  0.21860437  0.06304830     0.18260
N1074       N  0.53368116  0.24715450  0.02802803    -0.88450
H1075       H  0.45569496  0.17111088  0.03892820     0.35640
H1076       H  0.47985400  0.15463631  0.04553321     0.40730
H1077       H  0.54981962  0.23815237  0.02618684     0.40350
H1078       H  0.53478715  0.25771160  0.04334721     0.35240
C1079       C  0.51647589  0.19962990  0.94591335    -0.26490
C1080       C  0.49928697  0.19934088  0.92787512    -0.14560
C1081       C  0.47759110  0.21143977  0.93186422     0.36070
C1082       C  0.47422835  0.22383976  0.95340089    -0.25940
C1083       C  0.49272459  0.22668176  0.97037018    -0.15170
C1084       C  0.51375682  0.21317743  0.96654015     0.37150
N1085       N  0.53306452  0.21381917  0.98318497    -0.89430
H1086       H  0.53283715  0.18973237  0.94377473     0.18270
H1087       H  0.45703521  0.23183774  0.95604208     0.18260
N1088       N  0.45888699  0.21244649  0.91444752    -0.88450
H1089       H  0.54833307  0.21977145  0.97449616     0.35640
H1090       H  0.53618143  0.19650606  0.98891745     0.40730
H1091       H  0.46382025  0.20443882  0.89852403     0.40350
H1092       H  0.45614524  0.23032557  0.91046794     0.35240
C1093       C  0.52514988  0.26684800  0.97230895    -0.26490
C1094       C  0.50836472  0.26487531  0.99094329    -0.14560
C1095       C  0.50854509  0.28352810  0.00815992     0.36070
C1096       C  0.52745183  0.29982390  0.00895107    -0.25940
C1097       C  0.54678056  0.29806119  0.99334114    -0.15170
C1098       C  0.54497553  0.28205106  0.97394733     0.37150
N1099       N  0.56318010  0.27955467  0.95625461    -0.89430
H1100       H  0.52418525  0.25560878  0.95676690     0.18270
H1101       H  0.52798564  0.31273726  0.02332097     0.18260
N1102       N  0.49081263  0.28477413  0.02629895    -0.88450
H1103       H  0.56996035  0.26233896  0.95743338     0.35640
H1104       H  0.57745736  0.29096517  0.95928546     0.40730
H1105       H  0.49919043  0.28371244  0.04281466     0.40350
H1106       H  0.48253056  0.30132488  0.02527163     0.35240
C1107       C  0.45893154  0.27191882  0.97679776    -0.26490
C1108       C  0.46516164  0.25513122  0.99444302    -0.14560
C1109       C  0.44911150  0.25305182  0.01398024     0.36070
C1110       C  0.42833836  0.26653991  0.01472422    -0.25940
C1111       C  0.42379488  0.28455062  0.99850507    -0.15170
C1112       C  0.43898457  0.28678210  0.97884791     0.37150
N1113       N  0.43551618  0.30476255  0.96144721    -0.89430
H1114       H  0.47066667  0.27453702  0.96184405     0.18270
H1115       H  0.41671565  0.26443743  0.02986639     0.18260
N1116       N  0.45433274  0.23950967  0.03464314    -0.88450
H1117       H  0.43545266  0.32132992  0.96996190     0.35640
H1118       H  0.41898668  0.30193707  0.95337907     0.40730
H1119       H  0.44045251  0.22741485  0.03728442     0.40350
H1120       H  0.45511114  0.25100166  0.04930140     0.35240
C1121       C  0.43564233  0.43662519  0.13073659    -0.26490
C1122       C  0.43656856  0.45419068  0.11330161    -0.14560
C1123       C  0.41848201  0.45521603  0.09596937     0.36910
C1124       C  0.40038970  0.43800722  0.09588177    -0.25940
C1125       C  0.40011711  0.41971139  0.11260840    -0.15170
C1126       C  0.41778998  0.41922878  0.13049132     0.37150
N1127       N  0.41822352  0.40146813  0.14861289    -0.89430
H1128       H  0.44937878  0.43590300  0.14423162     0.18270
H1129       H  0.38705892  0.43823170  0.08197347     0.18260
N1130       N  0.41868844  0.47353746  0.07839842    -0.88450
H1131       H  0.43327849  0.39096717  0.14583489     0.35640
H1132       H  0.40341443  0.39027619  0.14765777     0.40730
H1133       H  0.41639864  0.48978698  0.08720558     0.40350
H1134       H  0.40425824  0.47157477  0.06679788     0.35240
C1135       C  0.44681588  0.57062471  0.08983091    -0.26490
C1136       C  0.44637704  0.55584681  0.10969095    -0.14560
C1137       C  0.42881338  0.55942876  0.12724268     0.36070
C1138       C  0.41202951  0.57763194  0.12439004    -0.25940
C1139       C  0.41241003  0.59219359  0.10443195    -0.15170
C1140       C  0.43003779  0.58873748  0.08696103     0.37150
N1141       N  0.43003132  0.60264107  0.06572143    -0.89430
H1142       H  0.46018579  0.56786538  0.07629784     0.18270
H1143       H  0.39803970  0.57996539  0.13736933     0.18260
N1144       N  0.42739975  0.54400475  0.14734053    -0.88450
H1145       H  0.44261885  0.59618755  0.05369498     0.35640
H1146       H  0.43567419  0.61975301  0.07036517     0.40730
H1147       H  0.42291738  0.52704547  0.14102926     0.40350
H1148       H  0.41363899  0.54925213  0.15863874     0.35240
C1149       C  0.56843262  0.58418665  0.12466978    -0.26490
C1150       C  0.58647360  0.58100382  0.10788158    -0.14560
C1151       C  0.58592879  0.56077301  0.09279304     0.36070
C1152       C  0.56750778  0.54408272  0.09517414    -0.25940
C1153       C  0.54945334  0.54728503  0.11197615    -0.15170
C1154       C  0.55003123  0.56760478  0.12693596     0.37150
N1155       N  0.53164238  0.57250498  0.14378685    -0.89430
H1156       H  0.56843136  0.59994467  0.13585779     0.18270
H1157       H  0.56697127  0.52868146  0.08351195     0.18260
N1158       N  0.60337939  0.55770641  0.07444132    -0.88450
H1159       H  0.53151632  0.55910392  0.15644635     0.35640
H1160       H  0.51527590  0.57261682  0.13492826     0.40730
H1161       H  0.60098995  0.57134540  0.06223429     0.40350
H1162       H  0.60055111  0.54177722  0.06516625     0.35240
C1163       C  0.55073553  0.40430942  0.10029317    -0.26490
C1164       C  0.57230869  0.40644217  0.11275204    -0.14560
C1165       C  0.57617136  0.42629761  0.12769528     0.36070
C1166       C  0.55891231  0.44425174  0.12886418    -0.25940
C1167       C  0.53805446  0.44277777  0.11520786    -0.15170
C1168       C  0.53352760  0.42212003  0.10139558     0.37150
N1169       N  0.51169603  0.41836523  0.08851492    -0.89430
H1170       H  0.54752249  0.38915652  0.08873986     0.18270
H1171       H  0.56223378  0.45996653  0.13962962     0.18260
N1172       N  0.59793547  0.42846825  0.14099029    -0.88450
H1173       H  0.51543947  0.41983958  0.07045364     0.35640
H1174       H  0.49879214  0.43093023  0.09283070     0.40730
H1175       H  0.59835540  0.41456588  0.15311930     0.40350
H1176       H  0.59812120  0.44424127  0.15091781     0.35240
C1177       C  0.01773067  0.50988652  0.20918171    -0.26490
C1178       C  0.01719714  0.49292504  0.22751501    -0.14560
C1179       C  0.03908828  0.48059066  0.23195986     0.36070
C1180       C  0.05924533  0.48468614  0.21769990    -0.25940
C1181       C  0.05896549  0.50145127  0.19964445    -0.15170
C1182       C  0.03767754  0.51374178  0.19506991     0.37150
N1183       N  0.03558130  0.53018192  0.17594499    -0.89430
H1184       H  0.00224630  0.52047547  0.20554344     0.18270
H1185       H  0.07576106  0.47572056  0.22182119     0.18260
N1186       N  0.04204355  0.46528377  0.25185617    -0.88450
H1187       H  0.04067520  0.52160202  0.16025986     0.35640
H1188       H  0.04683505  0.54465769  0.17899108     0.40730
H1189       H  0.05581815  0.47200195  0.26249159     0.40350
H1190       H  0.04725286  0.44858095  0.24554429     0.35240
C1191       C  0.97108255  0.48462947  0.20438710    -0.26490
C1192       C  0.97060167  0.49034816  0.22895114    -0.14560
C1193       C  0.94741765  0.49252086  0.23928177     0.36070
C1194       C  0.92742386  0.49510715  0.22474110    -0.25940
C1195       C  0.92915393  0.49349082  0.20013359    -0.15170
C1196       C  0.95094615  0.48687036  0.18995979     0.37150
N1197       N  0.95344074  0.48353093  0.16489913    -0.89430
H1198       H  0.98727805  0.47894662  0.19582839     0.18270
H1199       H  0.91042526  0.49929228  0.23276428     0.18260
N1200       N  0.94321845  0.49288233  0.26425898    -0.88450
H1201       H  0.94870495  0.49927786  0.15647315     0.35640
H1202       H  0.94165308  0.47014534  0.15946026     0.40730
H1203       H  0.95279669  0.50653197  0.27242838     0.40350
H1204       H  0.94778584  0.47642376  0.27118256     0.35240
C1205       C  0.99553100  0.44699252  0.29611481    -0.26490
C1206       C  0.00008552  0.42607411  0.28350079    -0.14560
C1207       C  0.99881505  0.42607148  0.25859107     0.36070
C1208       C  0.99497672  0.44749993  0.24688532    -0.25940
C1209       C  0.99376930  0.46949861  0.25921386    -0.15170
C1210       C  0.99202551  0.46858171  0.28448018     0.37150
N1211       N  0.98603567  0.48889284  0.29869433    -0.89430
H1212       H  0.99581179  0.44681654  0.31532758     0.18270
H1213       H  0.99502273  0.44718919  0.22769668     0.18260
N1214       N  0.00211223  0.40489104  0.24456907    -0.88450
H1215       H  0.99957991  0.49156625  0.31120114     0.35640
H1216       H  0.97048625  0.48503439  0.30804019     0.40730
H1217       H  0.00398100  0.38990122  0.25513633     0.40350
H1218       H  0.01795141  0.40685578  0.23511467     0.35240
C1219       C  0.01694331  0.51765898  0.27367749    -0.26490
C1220       C  0.99713553  0.51616912  0.25821028    -0.14560
C1221       C  0.98351830  0.53750324  0.25529522     0.36070
C1222       C  0.98903973  0.55792421  0.26906048    -0.25940
C1223       C  0.00840463  0.55846461  0.28465913    -0.15170
C1224       C  0.02217773  0.53778895  0.28724723     0.37150
N1225       N  0.04094164  0.53608534  0.30440599    -0.89430
H1226       H  0.02819589  0.50237609  0.27610514     0.18270
H1227       H  0.97875802  0.57399048  0.26680138     0.18260
N1228       N  0.96472540  0.53919805  0.23809029    -0.88450
H1229       H  0.03440940  0.54129719  0.32097893     0.35640
H1230       H  0.05500821  0.54713599  0.29966881     0.40730
H1231       H  0.97239897  0.53998298  0.22133022     0.40350
H1232       H  0.95522902  0.55500014  0.24021488     0.35240
C1233       C  0.04517619  0.59966596  0.06958975    -0.26490
C1234       C  0.04486555  0.61993872  0.05530697    -0.14560
C1235       C  0.06096200  0.63871711  0.06024071     0.36070
C1236       C  0.07719283  0.63655372  0.07910106    -0.25940
C1237       C  0.07764385  0.61612956  0.09302897    -0.15170
C1238       C  0.06139484  0.59749266  0.08832950     0.37150
N1239       N  0.06232168  0.57586096  0.10164130    -0.89430
H1240       H  0.03284069  0.58524391  0.06597556     0.18270
H1241       H  0.09019152  0.65046110  0.08241433     0.18260
N1242       N  0.06146364  0.65946009  0.04561826    -0.88450
H1243       H  0.05065900  0.56317523  0.09447037     0.35640
H1244       H  0.05601623  0.57964956  0.11864751     0.40730
H1245       H  0.06712070  0.65412850  0.02876516     0.40350
H1246       H  0.07409757  0.67166515  0.05191195     0.35240
C1247       C  0.04617621  0.60294322  0.93148902    -0.26490
C1248       C  0.04960373  0.61930825  0.95007636    -0.14560
C1249       C  0.06973701  0.63451632  0.94982714     0.36070
C1250       C  0.08540694  0.63341193  0.93058891    -0.25940
C1251       C  0.08172185  0.61729984  0.91184866    -0.15170
C1252       C  0.06213951  0.60150686  0.91253917     0.37150
N1253       N  0.05887937  0.58360303  0.89444709    -0.89430
H1254       H  0.03091328  0.59113170  0.93178416     0.18270
H1255       H  0.10093383  0.64487974  0.93052503     0.18260
N1256       N  0.07570274  0.65022715  0.96918293    -0.88450
H1257       H  0.04345990  0.57367651  0.89751853     0.35640
H1258       H  0.07313139  0.57178843  0.89563821     0.40730
H1259       H  0.06514700  0.64731242  0.98402596     0.40350
H1260       H  0.07280678  0.66761036  0.96356886     0.35240
C1261       C  0.94280174  0.63780323  0.06726542    -0.26490
C1262       C  0.94248630  0.62117483  0.04856068    -0.14560
C1263       C  0.92398983  0.60426136  0.04713841     0.36070
C1264       C  0.90665645  0.60383703  0.06489869    -0.25940
C1265       C  0.90739516  0.61988859  0.08412000    -0.15170
C1266       C  0.92563197  0.63722690  0.08522640     0.37150
N1267       N  0.92724558  0.65453185  0.10406797    -0.89430
H1268       H  0.95692524  0.65092413  0.06833351     0.18270
H1269       H  0.89292673  0.59029677  0.06414157     0.18260
N1270       N  0.92292504  0.58752503  0.02773609    -0.88450
H1271       H  0.94274471  0.65103780  0.11369032     0.35640
H1272       H  0.91301911  0.65321357  0.11581588     0.40730
H1273       H  0.92011940  0.59713401  0.01222259     0.40350
H1274       H  0.90832002  0.57613793  0.02949689     0.35240
C1275       C  0.93119250  0.63792654  0.94359395    -0.26490
C1276       C  0.94856733  0.62012928  0.94510468    -0.14560
C1277       C  0.94915005  0.60193521  0.92772463     0.36070
C1278       C  0.93211350  0.60172503  0.90955386    -0.25940
C1279       C  0.91447873  0.61925702  0.90823319    -0.15170
C1280       C  0.91401124  0.63763608  0.92549465     0.37150
N1281       N  0.89680357  0.65645281  0.92503690    -0.89430
H1282       H  0.93068190  0.65198462  0.95683465     0.18270
H1283       H  0.93231541  0.58743270  0.89655696     0.18260
N1284       N  0.96708651  0.58379611  0.92847288    -0.88450
H1285       H  0.88606517  0.65473809  0.94001814     0.35640
H1286       H  0.88565811  0.65519543  0.91025997     0.40730
H1287       H  0.98354153  0.59201250  0.92572349     0.40350
H1288       H  0.96475646  0.57157493  0.91458253     0.35240
C1289       C  0.23690678  0.51456029  0.03300703    -0.26490
C1290       C  0.22998251  0.49702793  0.01617954    -0.14560
C1291       C  0.21385343  0.47919813  0.02443527     0.36070
C1292       C  0.20141176  0.48280393  0.04598390    -0.25940
C1293       C  0.20654723  0.50229864  0.06079858    -0.15170
C1294       C  0.22641952  0.51659546  0.05528780     0.37150
N1295       N  0.23663045  0.53331344  0.07195965    -0.89430
H1296       H  0.25166646  0.52636792  0.02976756     0.18270
H1297       H  0.18720951  0.47075880  0.05081019     0.18260
N1298       N  0.21015839  0.45751081  0.01121530    -0.88450
H1299       H  0.25475190  0.52942811  0.07345538     0.35640
H1300       H  0.22999846  0.53053261  0.08896302     0.40730
H1301       H  0.20151904  0.46128032  0.99534844     0.40350
H1302       H  0.19892283  0.44602860  0.02041977     0.35240
C1303       C  0.23557514  0.49310834  0.94679311    -0.26490
C1304       C  0.22498591  0.49553302  0.96946581    -0.14560
C1305       C  0.20015795  0.50102379  0.96999600     0.36070
C1306       C  0.18736282  0.50339866  0.94871450    -0.25940
C1307       C  0.19848741  0.50167974  0.92665730    -0.15170
C1308       C  0.22286901  0.49615049  0.92568169     0.37150
N1309       N  0.23553860  0.49413957  0.90365502    -0.89430
H1310       H  0.25446740  0.48959847  0.94547075     0.18270
H1311       H  0.16881785  0.50858405  0.94950230     0.18260
N1312       N  0.18785898  0.50616236  0.99161359    -0.88450
H1313       H  0.24778252  0.50813349  0.90301250     0.35640
H1314       H  0.22423394  0.49584856  0.88906757     0.40730
H1315       H  0.17344663  0.49446256  0.99289756     0.40350
H1316       H  0.18097161  0.52334992  0.99071443     0.35240
C1317       C  0.28264647  0.51663884  0.98070393    -0.26490
C1318       C  0.25821628  0.51826500  0.98657541    -0.14560
C1319       C  0.24837082  0.54153821  0.98753900     0.36070
C1320       C  0.26329876  0.56151395  0.98782536    -0.25940
C1321       C  0.28795288  0.55919558  0.98624837    -0.15170
C1322       C  0.29768199  0.53660752  0.98132892     0.37150
N1323       N  0.32275397  0.53305227  0.97790683    -0.89430
H1324       H  0.29067763  0.49967639  0.97668022     0.18270
H1325       H  0.25563892  0.57887435  0.99111823     0.18260
N1326       N  0.22332483  0.54504225  0.99014071    -0.88450
H1327       H  0.32904629  0.52308475  0.99213112     0.35640
H1328       H  0.33209300  0.54909018  0.97811094     0.40730
H1329       H  0.21741316  0.55526315  0.97593858     0.40350
H1330       H  0.22034480  0.55469749  0.00576768     0.35240
C1331       C  0.25271205  0.45208736  0.97845895    -0.26490
C1332       C  0.25774711  0.47254579  0.99254711    -0.14560
C1333       C  0.27613370  0.47049391  0.00981108     0.36070
C1334       C  0.28864047  0.44929711  0.01222459    -0.25940
C1335       C  0.28309004  0.42910375  0.99865937    -0.15170
C1336       C  0.26503561  0.43057871  0.98128947     0.37150
N1337       N  0.25793895  0.41054257  0.96690598    -0.89430
H1338       H  0.23814097  0.45194433  0.96595265     0.18270
H1339       H  0.30240408  0.44839347  0.02569357     0.18260
N1340       N  0.28210401  0.48984380  0.02541896    -0.88450
H1341       H  0.24037831  0.40632515  0.97129176     0.35640
H1342       H  0.26808433  0.39554186  0.97051887     0.40730
H1343       H  0.30013946  0.49387247  0.02328474     0.40350
H1344       H  0.27962000  0.48426227  0.04285825     0.35240
C1345       C  0.01282602  0.77584298  0.50982735    -0.26490
C1346       C  0.01085749  0.75827671  0.49179155    -0.14560
C1347       C  0.03219615  0.75287575  0.47894935     0.36070
C1348       C  0.05303794  0.76628019  0.48279652    -0.25940
C1349       C  0.05420515  0.78387038  0.50031203    -0.15170
C1350       C  0.03381414  0.78868307  0.51395196     0.37150
N1351       N  0.03387292  0.80658404  0.53217871    -0.89430
H1352       H  0.99781114  0.77959743  0.52116184     0.18270
H1353       H  0.06899952  0.76173927  0.47303732     0.18260
N1354       N  0.03383776  0.73278783  0.46329081    -0.88450
H1355       H  0.03910296  0.82267607  0.52468617     0.35640
H1356       H  0.04625497  0.80200680  0.54516884     0.40730
H1357       H  0.04709934  0.72151485  0.46964097     0.40350
H1358       H  0.03915580  0.73878551  0.44664209     0.35240
C1359       C  0.96414531  0.78331921  0.48676208    -0.26490
C1360       C  0.96399163  0.75842068  0.49024613    -0.14560
C1361       C  0.94135389  0.74719371  0.49207422     0.36070
C1362       C  0.92052486  0.76077175  0.49309065    -0.25940
C1363       C  0.92120466  0.78552824  0.49164577    -0.15170
C1364       C  0.94325774  0.79683613  0.48781017     0.37150
N1365       N  0.94518964  0.82211034  0.48597820    -0.89430
H1366       H  0.98048363  0.79272259  0.48315421     0.18270
H1367       H  0.90367364  0.75188407  0.49607189     0.18260
N1368       N  0.93943540  0.72194281  0.49415173    -0.88450
H1369       H  0.93828496  0.82987237  0.50137908     0.35640
H1370       H  0.93504381  0.82754325  0.47148525     0.40730
H1371       H  0.92874028  0.71561557  0.48025962     0.40350
H1372       H  0.93086630  0.71812928  0.51009055     0.35240
C1373       C  0.98941349  0.72770794  0.42338292    -0.26490
C1374       C  0.98868006  0.70292172  0.42339581    -0.14560
C1375       C  0.98321999  0.69105423  0.44448782     0.36070
C1376       C  0.98108894  0.70418014  0.46572600    -0.25940
C1377       C  0.98527559  0.72899798  0.46658026    -0.15170
C1378       C  0.98726654  0.74083961  0.44448814     0.37150
N1379       N  0.98920457  0.76616778  0.44353400    -0.89430
H1380       H  0.99335174  0.73692516  0.40707673     0.18270
H1381       H  0.97676729  0.69462688  0.48163934     0.18260
N1382       N  0.98152230  0.66558990  0.44455831    -0.88450
H1383       H  0.97552301  0.77242807  0.43269910     0.35640
H1384       H  0.00541690  0.77052617  0.43562440     0.40730
H1385       H  0.96669219  0.66081328  0.43433493     0.40350
H1386       H  0.97828384  0.65945874  0.46167844     0.35240
C1387       C  0.00656177  0.70904356  0.51291691    -0.26490
C1388       C  0.98925312  0.72723532  0.51304100    -0.14560
C1389       C  0.97797913  0.73209534  0.53530934     0.36070
C1390       C  0.98285580  0.71793918  0.55523712    -0.25940
C1391       C  0.99969087  0.69975428  0.55433112    -0.15170
C1392       C  0.01146171  0.69520915  0.53275064     0.37150
N1393       N  0.02853315  0.67650443  0.53033108    -0.89430
H1394       H  0.01674237  0.70548546  0.49708353     0.18270
H1395       H  0.97444164  0.72220295  0.57199681     0.18260
N1396       N  0.96289752  0.75227332  0.53867860    -0.88450
H1397       H  0.02054635  0.66060135  0.53552518     0.35640
H1398       H  0.04303177  0.68004140  0.54142057     0.40730
H1399       H  0.97034570  0.76310076  0.55192688     0.40350
H1400       H  0.94638526  0.74628411  0.54470957     0.35240
C1401       C  0.74836717  0.03986436  0.51692390    -0.26490
C1402       C  0.75353477  0.02368960  0.49819535    -0.14560
C1403       C  0.76859251  0.03227006  0.47987269     0.36070
C1404       C  0.77920339  0.05495288  0.48167456    -0.25940
C1405       C  0.77491403  0.06992493  0.50117276    -0.15170
C1406       C  0.75857743  0.06251496  0.51856622     0.37150
N1407       N  0.75149346  0.07759711  0.53805238    -0.89430
H1408       H  0.73515566  0.03586819  0.53011854     0.18270
H1409       H  0.79156070  0.06052587  0.46810133     0.18260
N1410       N  0.77349605  0.01782232  0.45945094    -0.88450
H1411       H  0.73306051  0.07979545  0.53692531     0.35640
H1412       H  0.75860957  0.09464740  0.53669864     0.40730
H1413       H  0.79190137  0.01547839  0.45832419     0.40350
H1414       H  0.76794168  0.02703756  0.44443619     0.35240
C1415       C  0.76688051  0.93463961  0.49488196    -0.26490
C1416       C  0.79093213  0.93858822  0.49951242    -0.14560
C1417       C  0.79944516  0.96207474  0.50124503     0.36070
C1418       C  0.78370117  0.98114981  0.49882585    -0.25940
C1419       C  0.75903000  0.97762574  0.49472247    -0.15170
C1420       C  0.75092342  0.95360601  0.49287327     0.37150
N1421       N  0.72619590  0.94821218  0.48986323    -0.89430
H1422       H  0.76009230  0.91659988  0.49427979     0.18270
H1423       H  0.79100698  0.99866174  0.50183186     0.18260
N1424       N  0.82394480  0.96705163  0.50639563    -0.88450
H1425       H  0.72071740  0.93798489  0.50422963     0.35640
H1426       H  0.72417976  0.93789064  0.47448094     0.40730
H1427       H  0.83432097  0.95888549  0.49333242     0.40350
H1428       H  0.82824799  0.95959201  0.52273479     0.35240
C1429       C  0.72886464  0.98632414  0.45310652    -0.26490
C1430       C  0.72492823  0.00080310  0.47346557    -0.14560
C1431       C  0.70791680  0.01947385  0.47123448     0.36070
C1432       C  0.69531120  0.02218160  0.44997881    -0.25940
C1433       C  0.69938645  0.00763037  0.43018410    -0.15170
C1434       C  0.71633546  0.98934060  0.43179854     0.37150
N1435       N  0.72220483  0.97415370  0.41203390    -0.89430
H1436       H  0.74276499  0.97318757  0.45280564     0.18270
H1437       H  0.68258154  0.03651742  0.44856111     0.18260
N1438       N  0.70455348  0.03684766  0.48981072    -0.88450
H1439       H  0.73992991  0.97749624  0.40755546     0.35640
H1440       H  0.71205959  0.97796451  0.39706446     0.40730
H1441       H  0.69527416  0.02910166  0.50368116     0.40350
H1442       H  0.69398746  0.05091034  0.48404996     0.35240
C1443       C  0.69058516  0.98662534  0.54294202    -0.26490
C1444       C  0.70330314  0.99108958  0.56388400    -0.14560
C1445       C  0.72828895  0.99300437  0.56288262     0.36070
C1446       C  0.73952646  0.99314503  0.54083418    -0.25940
C1447       C  0.72652856  0.99307298  0.51928199    -0.15170
C1448       C  0.70186581  0.98709892  0.52071642     0.37150
N1449       N  0.68797321  0.98143819  0.50008719    -0.89430
H1450       H  0.67146655  0.98419053  0.54367057     0.18270
H1451       H  0.75865040  0.99558091  0.54055701     0.18260
N1452       N  0.74280038  0.99545153  0.58380247    -0.88450
H1453       H  0.67347519  0.99299537  0.49945638     0.35640
H1454       H  0.68116997  0.96427027  0.50201609     0.40730
H1455       H  0.73281089  0.99368440  0.59924913     0.40350
H1456       H  0.75007114  0.01256489  0.58391046     0.35240
C1457       C  0.47235546  0.02318013  0.76729210    -0.26490
C1458       C  0.49072102  0.01822588  0.75070699    -0.14560
C1459       C  0.50815996  0.03679184  0.74754059     0.36070
C1460       C  0.50923529  0.05553686  0.76384427    -0.25940
C1461       C  0.49376441  0.05745749  0.78306345    -0.15170
C1462       C  0.47409746  0.04181424  0.78404980     0.37150
N1463       N  0.45686215  0.04259019  0.80278443    -0.89430
H1464       H  0.45790938  0.01058731  0.76929306     0.18270
H1465       H  0.52333263  0.06858492  0.76191498     0.18260
N1466       N  0.52474991  0.03882662  0.72826374    -0.88450
H1467       H  0.44038151  0.04648976  0.79515281     0.35640
H1468       H  0.46051789  0.05602808  0.81505765     0.40730
H1469       H  0.52220837  0.02729525  0.71413447     0.40350
H1470       H  0.54202189  0.03684723  0.73485336     0.35240
C1471       C  0.48524468  0.94891449  0.74763804    -0.26490
C1472       C  0.48933092  0.97214153  0.75681186    -0.14560
C1473       C  0.49724765  0.97380368  0.78093941     0.36070
C1474       C  0.49973875  0.95324343  0.79451794    -0.25940
C1475       C  0.49605372  0.93061888  0.78485724    -0.15170
C1476       C  0.48819287  0.92840457  0.76121735     0.37150
N1477       N  0.48443006  0.90570574  0.74989476    -0.89430
H1478       H  0.48051451  0.94657622  0.72914830     0.18270
H1479       H  0.50666184  0.95491893  0.81242563     0.18260
N1480       N  0.50521824  0.99565018  0.79150196    -0.88450
H1481       H  0.46656595  0.90482943  0.74473624     0.35640
H1482       H  0.48704098  0.89176139  0.76164546     0.40730
H1483       H  0.52300380  0.99377291  0.79661917     0.40350
H1484       H  0.49523286  0.99871590  0.80682882     0.35240
C1485       C  0.44562211  0.98130081  0.72922399    -0.26490
C1486       C  0.46663358  0.99391378  0.72291248    -0.14560
C1487       C  0.46444979  0.01023966  0.70393103     0.36070
C1488       C  0.44292157  0.01280475  0.69178056    -0.25940
C1489       C  0.42249852  0.00033436  0.69827096    -0.15170
C1490       C  0.42386726  0.98411380  0.71693929     0.37150
N1491       N  0.40281588  0.97175876  0.72439019    -0.89430
H1492       H  0.44536507  0.97020425  0.74468650     0.18270
H1493       H  0.44190564  0.02570653  0.67767721     0.18260
N1494       N  0.48381477  0.02513573  0.69720203    -0.88450
H1495       H  0.40656897  0.96087512  0.73881826     0.35640
H1496       H  0.39758395  0.96048226  0.71048816     0.40730
H1497       H  0.47859547  0.04282215  0.69941265     0.40350
H1498       H  0.48732862  0.02229527  0.67921890     0.35240
C1499       C  0.53645343  0.97925573  0.68872180    -0.26490
C1500       C  0.55740094  0.98573337  0.70069737    -0.14560
C1501       C  0.55682868  0.98853732  0.72552944     0.36070
C1502       C  0.53488706  0.98882431  0.73706057    -0.25940
C1503       C  0.51309381  0.98706171  0.72452063    -0.15170
C1504       C  0.51439071  0.97905855  0.70054507     0.37150
N1505       N  0.49386631  0.97023761  0.68818805    -0.89430
H1506       H  0.53695229  0.97573963  0.66981646     0.18270
H1507       H  0.53494083  0.99287862  0.75578467     0.18260
N1508       N  0.57797313  0.99279332  0.73939777    -0.88450
H1509       H  0.49710480  0.95257238  0.68338624     0.35640
H1510       H  0.49185961  0.97986098  0.67257117     0.40730
H1511       H  0.59326338  0.99121298  0.72905856     0.40350
H1512       H  0.57909004  0.97928849  0.75192737     0.35240
C1513       C  0.01085881  0.50524489  0.78250154    -0.26490
C1514       C  0.01408595  0.49887283  0.75834835    -0.14560
C1515       C  0.03793891  0.49961849  0.74962489     0.36070
C1516       C  0.05710327  0.50469372  0.76482220    -0.25940
C1517       C  0.05349733  0.50977472  0.78872615    -0.15170
C1518       C  0.03014017  0.51027109  0.79759292     0.37150
N1519       N  0.02545409  0.51658405  0.82178097    -0.89430
H1520       H  0.99340113  0.50757214  0.78993589     0.18270
H1521       H  0.07497339  0.50527898  0.75767052     0.18260
N1522       N  0.04294337  0.49501762  0.72518949    -0.88450
H1523       H  0.03215548  0.53365207  0.82500412     0.35640
H1524       H  0.03457163  0.50472871  0.83264650     0.40730
H1525       H  0.05474161  0.48074150  0.72407942     0.40350
H1526       H  0.05142557  0.50996029  0.71826122     0.35240
C1527       C  0.94897306  0.50874827  0.74327365    -0.26490
C1528       C  0.96752647  0.49505464  0.75324876    -0.14560
C1529       C  0.96135423  0.48137143  0.77350076     0.36070
C1530       C  0.94046972  0.48672218  0.78627540    -0.25940
C1531       C  0.92439958  0.50368007  0.77805702    -0.15170
C1532       C  0.92784642  0.51320348  0.75533897     0.37150
N1533       N  0.90995676  0.52698964  0.74371217    -0.89430
H1534       H  0.95069848  0.51652976  0.72592457     0.18270
H1535       H  0.93716339  0.47822016  0.80309030     0.18260
N1536       N  0.97669315  0.46293851  0.78177224    -0.88450
H1537       H  0.90730503  0.54287881  0.75292753     0.35640
H1538       H  0.89406807  0.51728484  0.74355284     0.40730
H1539       H  0.97470231  0.44865355  0.76997578     0.40350
H1540       H  0.97102849  0.45670196  0.79821102     0.35240
C1541       C  0.01082933  0.42965150  0.72098121    -0.26490
C1542       C  0.99606591  0.42622528  0.70120661    -0.14560
C1543       C  0.97770200  0.44287883  0.69714737     0.36070
C1544       C  0.97594760  0.46290674  0.71212972    -0.25940
C1545       C  0.99363956  0.46874269  0.72918280    -0.15170
C1546       C  0.01015449  0.45032529  0.73496120     0.37150
N1547       N  0.02642546  0.45202608  0.75465914    -0.89430
H1548       H  0.02397632  0.41624390  0.72505061     0.18270
H1549       H  0.96208202  0.47562643  0.70833821     0.18260
N1550       N  0.96155653  0.44136917  0.67736930    -0.88450
H1551       H  0.03885607  0.43826200  0.75438992     0.35640
H1552       H  0.01693135  0.45010127  0.77032999     0.40730
H1553       H  0.96526766  0.42705800  0.66628434     0.40350
H1554       H  0.96416142  0.45647975  0.66706073     0.35240
C1555       C  0.99289974  0.53851752  0.73391949    -0.26490
C1556       C  0.99478338  0.51562995  0.72326158    -0.14560
C1557       C  0.99898934  0.51494378  0.69816761     0.36070
C1558       C  0.00095499  0.53642007  0.68551451    -0.25940
C1559       C  0.99960849  0.55862135  0.69676528    -0.15170
C1560       C  0.99519062  0.55962813  0.72128440     0.37150
N1561       N  0.99345439  0.58172631  0.73418643    -0.89430
H1562       H  0.98964353  0.54004725  0.75278618     0.18270
H1563       H  0.00503639  0.53584924  0.66675787     0.18260
N1564       N  0.00211678  0.49308795  0.68524041    -0.88450
H1565       H  0.97641903  0.58253011  0.74153302     0.35640
H1566       H  0.99484412  0.59632638  0.72303352     0.40730
H1567       H  0.01836286  0.48567254  0.69005176     0.40350
H1568       H  0.00306009  0.49599746  0.66699874     0.35240
C1569       C  0.51709523  0.79014559  0.03548186    -0.26490
C1570       C  0.50139727  0.78782765  0.05458156    -0.14560
C1571       C  0.48145375  0.77262740  0.05185520     0.36070
C1572       C  0.47790049  0.76044673  0.03018998    -0.25940
C1573       C  0.49397627  0.76226743  0.01091060    -0.15170
C1574       C  0.51407169  0.77734280  0.01432510     0.37150
N1575       N  0.53195611  0.77947994  0.99642432    -0.89430
H1576       H  0.53252202  0.80164594  0.03714480     0.18270
H1577       H  0.46316399  0.74813116  0.02947952     0.18260
N1578       N  0.46508506  0.76797293  0.07081380    -0.88450
H1579       H  0.54821716  0.77418790  0.00367052     0.35640
H1580       H  0.53344297  0.79737464  0.99187446     0.40730
H1581       H  0.46995148  0.77673442  0.08642517     0.40350
H1582       H  0.46598790  0.74984579  0.07453236     0.35240
C1583       C  0.49639725  0.76309176  0.92157333    -0.26490
C1584       C  0.49710278  0.78786986  0.92270516    -0.14560
C1585       C  0.49300133  0.79938352  0.94453847     0.36070
C1586       C  0.49012474  0.78596556  0.96506058    -0.25940
C1587       C  0.49221424  0.76089076  0.96476122    -0.15170
C1588       C  0.49333965  0.74956399  0.94211706     0.37150
N1589       N  0.49258942  0.72421662  0.93994561    -0.89430
H1590       H  0.49921887  0.75411417  0.90474246     0.18270
H1591       H  0.48674689  0.79560034  0.98134472     0.18260
N1592       N  0.49266690  0.82475570  0.94654145    -0.88450
H1593       H  0.50812609  0.71855082  0.93150022     0.35640
H1594       H  0.47816743  0.71964000  0.92906645     0.40730
H1595       H  0.47934508  0.83114205  0.93534883     0.40350
H1596       H  0.50903916  0.83137550  0.94080380     0.35240
C1597       C  0.46733083  0.70699142  0.98372893    -0.26490
C1598       C  0.46796839  0.73199157  0.98683156    -0.14560
C1599       C  0.44571443  0.74394228  0.98756190     0.36070
C1600       C  0.42445091  0.73096425  0.98919940    -0.25940
C1601       C  0.42448206  0.70616182  0.98881378    -0.15170
C1602       C  0.44596451  0.69403299  0.98506410     0.37150
N1603       N  0.44619261  0.66852055  0.98405736    -0.89430
H1604       H  0.48350015  0.69717198  0.98060921     0.18270
H1605       H  0.40784926  0.74036390  0.99177689     0.18260
N1606       N  0.44462520  0.76934486  0.98788453    -0.88450
H1607       H  0.46357783  0.66222608  0.98227827     0.35640
H1608       H  0.43708139  0.66328464  0.96869171     0.40730
H1609       H  0.43578002  0.77478211  0.00326926     0.40350
H1610       H  0.43447967  0.77467733  0.97333386     0.35240
C1611       C  0.53403776  0.73074458  0.97502080    -0.26490
C1612       C  0.51409996  0.72926245  0.99035220    -0.14560
C1613       C  0.51616959  0.71367411  0.00994661     0.36070
C1614       C  0.53679278  0.70028477  0.01331328    -0.25940
C1615       C  0.55643587  0.70214830  0.99823561    -0.15170
C1616       C  0.55492872  0.71751493  0.97863287     0.37150
N1617       N  0.57458924  0.72155990  0.96292849    -0.89430
H1618       H  0.53444264  0.74340624  0.96080614     0.18270
H1619       H  0.53763270  0.68865229  0.02848253     0.18260
N1620       N  0.49744478  0.71160474  0.02697889    -0.88450
H1621       H  0.56959355  0.71533574  0.94611629     0.35640
H1622       H  0.58969017  0.71214266  0.96789858     0.40730
H1623       H  0.50428359  0.71633330  0.04362929     0.40350
H1624       H  0.49213248  0.69381216  0.02760950     0.35240
C1625       C  0.77118337  0.52127275  0.05017434    -0.26490
C1626       C  0.79149221  0.50727464  0.05277652    -0.14560
C1627       C  0.79673835  0.49055422  0.03474812     0.36070
C1628       C  0.78137615  0.48809831  0.01511610    -0.25940
C1629       C  0.76017683  0.50163164  0.01273275    -0.15170
C1630       C  0.75668583  0.51999063  0.03008879     0.37150
N1631       N  0.74048771  0.53923871  0.02680595    -0.89430
H1632       H  0.76711187  0.53477692  0.06333979     0.18270
H1633       H  0.78564594  0.47484394  0.00175965     0.18260
N1634       N  0.81767654  0.47620789  0.03544559    -0.88450
H1635       H  0.75020584  0.55509408  0.02635123     0.35640
H1636       H  0.72921944  0.54009486  0.04150743     0.40730
H1637       H  0.81665733  0.46517437  0.05016123     0.40350
H1638       H  0.83252035  0.48732675  0.03718787     0.35240
C1639       C  0.76509018  0.48256796  0.95135462    -0.26490
C1640       C  0.76109441  0.50035980  0.96884678    -0.14560
C1641       C  0.77433952  0.52181738  0.96677750     0.36070
C1642       C  0.78929607  0.52541359  0.94747918    -0.25940
C1643       C  0.79116118  0.50878444  0.92895323    -0.15170
C1644       C  0.77931640  0.48676051  0.93134233     0.37150
N1645       N  0.78070100  0.46852047  0.91357533    -0.89430
H1646       H  0.75702470  0.46522872  0.95265469     0.18270
H1647       H  0.79900889  0.54202529  0.94679936     0.18260
N1648       N  0.77204762  0.54065639  0.98384652    -0.88450
H1649       H  0.79825645  0.46264458  0.91258220     0.35640
H1650       H  0.77562267  0.47561063  0.89728326     0.40730
H1651       H  0.78885161  0.54415106  0.99110742     0.40350
H1652       H  0.76633714  0.55592074  0.97514074     0.35240
C1653       C  0.71573969  0.46578023  0.97198714    -0.26490
C1654       C  0.73215002  0.47134561  0.99046814    -0.14560
C1655       C  0.73332566  0.45483813  0.00951337     0.36070
C1656       C  0.71949303  0.43420982  0.00892945    -0.25940
C1657       C  0.70115356  0.43072402  0.99241972    -0.15170
C1658       C  0.69956679  0.44665631  0.97321878     0.37150
N1659       N  0.68123071  0.44520900  0.95544936    -0.89430
H1660       H  0.71390061  0.47790779  0.95731163     0.18270
H1661       H  0.72128074  0.42205066  0.02360793     0.18260
N1662       N  0.74634924  0.45933962  0.03090353    -0.88450
H1663       H  0.67105863  0.46067390  0.95675984     0.35640
H1664       H  0.66957775  0.43120391  0.95837544     0.40730
H1665       H  0.75814292  0.44528956  0.03359292     0.40350
H1666       H  0.73440682  0.45985860  0.04507305     0.35240
C1667       C  0.70500388  0.51239213  0.00756104    -0.26490
C1668       C  0.72204869  0.51400020  0.98922989    -0.14560
C1669       C  0.71706632  0.53073956  0.97098532     0.36070
C1670       C  0.70070212  0.54917352  0.97521437    -0.25940
C1671       C  0.68773604  0.55014295  0.99626835    -0.15170
C1672       C  0.68821026  0.53041295  0.01143758     0.37150
N1673       N  0.67265109  0.52950855  0.03158177    -0.89430
H1674       H  0.70655601  0.49842385  0.02052018     0.18270
H1675       H  0.69893615  0.56329378  0.96243203     0.18260
N1676       N  0.72750172  0.52889315  0.94793997    -0.88450
H1677       H  0.67547300  0.51399597  0.04120159     0.35640
H1678       H  0.65520050  0.52864539  0.02516471     0.40730
H1679       H  0.73591013  0.54499655  0.94414885     0.40350
H1680       H  0.71378880  0.52645374  0.93558990     0.35240
loop_ 
_geom_bond_atom_site_label_1 
_geom_bond_atom_site_label_2 
_geom_bond_distance 
_geom_bond_site_symmetry_2 
_ccdc_geom_bond_type 
C1         C1629   1.579   1_556  S
C1         C1640   1.564       .  S
C1         C1654   1.577       .  S
C1         C1668   1.571       .  S
C2         C1573   1.573   1_556  S
C2         C1587   1.565       .  S
C2         C1598   1.564       .  S
C2         C1612   1.574       .  S
C3         C1514   1.573   1_655  S
C3         C1528   1.577       .  S
C3         C1545   1.567       .  S
C3         C1556   1.585       .  S
C4         C1458   1.575   1_565  S
C4         C1472   1.574       .  S
C4         C1486   1.574       .  S
C4         C1503   1.559       .  S
C5         C1402   1.580   1_565  S
C5         C1419   1.571       .  S
C5         C1430   1.566   1_565  S
C5         C1447   1.569       .  S
C6         C1346   1.573   1_655  S
C6         C1360   1.564       .  S
C6         C1377   1.564       .  S
C6         C1388   1.574       .  S
C7         C1290   1.574   1_556  S
C7         C1304   1.568       .  S
C7         C1318   1.574       .  S
C7         C1332   1.568       .  S
O8          Cu16   2.015   1_556  S
O8           C18   1.279       .  A
O9          Cu16   2.010   1_455  S
O9           C19   1.278       .  A
O10         Cu16   2.010   1_456  S
O10          C20   1.278       .  A
O11         Cu16   2.006       .  S
O11          C21   1.277       .  A
O12         Cu17   1.998   1_554  S
O12          C21   1.277       .  A
O13         Cu17   1.994   1_455  S
O13          C20   1.276       .  A
O14         Cu17   1.995   1_454  S
O14          C19   1.277       .  A
O15         Cu17   1.994       .  S
O15          C18   1.277       .  A
Cu16        Cu17   2.373   1_554  S
C18        C1276   1.479       .  S
C19        C1234   1.481       .  S
C20        C1248   1.473       .  S
C21        C1262   1.474       .  S
N22          N23   1.323       .  A
N22          C26   1.353       .  A
N22         Cu30   2.103       .  S
N23          C24   1.336       .  A
N23         Cu29   2.051       .  S
C24          C25   1.376       .  A
C24          H27   1.082       .  S
C25        C1531   1.479       .  S
C25          C26   1.392       .  A
C26          H28   1.082       .  S
Cu29         N32   2.049       .  S
Cu30         N40   2.103       .  S
Cu31         N33   2.058       .  S
Cu31         N39   2.058       .  S
N32          N33   1.316       .  A
N32          C36   1.341       .  A
N33          C34   1.345       .  A
C34          C35   1.386       .  A
C34          H37   1.082       .  S
C35        C1279   1.477       .  S
C35          C36   1.385       .  A
C36          H38   1.082       .  S
N39          N40   1.322       .  A
N39          C43   1.335       .  A
N40          C41   1.353       .  A
C41          C42   1.396       .  A
C41          H44   1.079       .  S
C42        C1643   1.493       .  S
C42          C43   1.382       .  A
C43          H45   1.082       .  S
C46        C1178   1.584   1_655  S
C46        C1192   1.573       .  S
C46        C1209   1.561       .  S
C46        C1220   1.572       .  S
N47          N48   1.322       .  A
N47          C51   1.355       .  A
N47         Cu55   2.103       .  S
N48          C49   1.333       .  A
N48         Cu54   2.050       .  S
C49          C50   1.380       .  A
C49          H52   1.082       .  S
C50        C1626   1.492       .  S
C50          C51   1.397       .  A
C51          H53   1.080       .  S
Cu54         N57   2.046       .  S
Cu55         N65   2.104       .  S
Cu56         N58   2.056       .  S
Cu56         N64   2.058       .  S
N57          N58   1.316       .  A
N57          C61   1.341       .  A
N58          C59   1.344       .  A
C59          C60   1.386       .  A
C59          H62   1.082       .  S
C60        C1265   1.476       .  S
C60          C61   1.384       .  A
C61          H63   1.082       .  S
N64          N65   1.325       .  A
N64          C68   1.338       .  A
N65          C66   1.352       .  A
C66          C67   1.388       .  A
C66          H69   1.082       .  S
C67        C1195   1.471       .  S
C67          C68   1.373       .  A
C68          H70   1.082       .  S
N71          N72   1.325       .  A
N71          C75   1.352       .  A
N71         Cu79   2.106       .  S
N72          C73   1.340       .  A
N72         Cu78   2.055       .  S
C73          C74   1.374       .  A
C73          H76   1.082       .  S
C74        C1517   1.473       .  S
C74          C75   1.388       .  A
C75          H77   1.082       .  S
Cu78         N81   2.051       .  S
Cu79         N89   2.106       .  S
Cu80         N82   2.053       .  S
Cu80         N88   2.054       .  S
N81          N82   1.318       .  A
N81          C85   1.342       .  A
N82          C83   1.343       .  A
C83          C84   1.382       .  A
C83          H86   1.082       .  S
C84        C1251   1.476       .  S
C84          C85   1.384       .  A
C85          H87   1.082       .  S
N88          N89   1.324       .  A
N88          C92   1.339       .  A
N89          C90   1.352       .  A
C90          C91   1.389       .  A
C90          H93   1.082       .  S
C91        C1307   1.474       .  S
C91          C92   1.375       .  A
C92          H94   1.082       .  S
O95        Cu103   2.000       .  S
O95         C105   1.277       .  A
O96        Cu103   1.998       .  S
O96         C106   1.278       .  A
O97        Cu103   2.005       .  S
O97         C107   1.278       .  A
O98        Cu103   2.001       .  S
O98         C108   1.277       .  A
O99        Cu104   2.003       .  S
O99         C108   1.277       .  A
O100       Cu104   2.004       .  S
O100        C107   1.276       .  A
O101       Cu104   2.006       .  S
O101        C106   1.277       .  A
O102       Cu104   2.006       .  S
O102        C105   1.277       .  A
Cu103      Cu104   2.373       .  S
C105       C1167   1.471       .  S
C106       C1136   1.479       .  S
C107       C1153   1.477       .  S
C108       C1122   1.474       .  S
N109        N110   1.324       .  A
N109        C113   1.355   1_554  A
N109       Cu117   2.117       .  S
N110        C111   1.338       .  A
N110       Cu116   2.054       .  S
C111        C112   1.378       .  A
C111        H114   1.082       .  S
C112       C1615   1.487   1_554  S
C112        C113   1.395   1_554  A
C113        H115   1.082       .  S
Cu116       N119   2.053       .  S
Cu117       N127   2.117       .  S
Cu118       N120   2.047       .  S
Cu118       N126   2.050       .  S
N119        N120   1.316       .  A
N119        C123   1.343       .  A
N120        C121   1.343       .  A
C121        C122   1.384       .  A
C121        H124   1.082       .  S
C122       C1150   1.478       .  S
C122        C123   1.384       .  A
C123        H125   1.082       .  S
N126        N127   1.324       .  A
N126        C130   1.337       .  A
N127        C128   1.356   1_554  A
C128        C129   1.393   1_556  A
C128        H131   1.082       .  S
C129       C1671   1.482   1_554  S
C129        C130   1.375       .  A
C130        H132   1.082       .  S
C133       C1066   1.578   1_556  S
C133       C1083   1.572       .  S
C133       C1094   1.575       .  S
C133       C1108   1.577       .  S
O134       Cu142   2.013   1_545  S
O134        C144   1.278       .  A
O135       Cu142   2.014   1_554  S
O135        C145   1.279       .  A
O136       Cu142   2.009       .  S
O136        C146   1.277       .  A
O137       Cu142   2.010   1_544  S
O137        C147   1.278       .  A
O138       Cu143   1.993   1_544  S
O138        C147   1.276       .  A
O139       Cu143   1.997       .  S
O139        C146   1.277       .  A
O140       Cu143   1.991   1_554  S
O140        C145   1.275       .  A
O141       Cu143   1.997   1_545  S
O141        C144   1.277       .  A
Cu142      Cu143   2.371       .  S
C144       C1024   1.479       .  S
C145       C1038   1.483       .  S
C146       C1052   1.470       .  S
C147       C1010   1.481       .  S
N148        N149   1.324       .  A
N148        C152   1.352       .  A
N148       Cu156   2.102       .  S
N149        C150   1.339       .  A
N149       Cu155   2.056       .  S
C150        C151   1.375       .  A
C150        H153   1.082       .  S
C151       C1475   1.475       .  S
C151        C152   1.389       .  A
C152        H154   1.082       .  S
Cu155       N158   2.053       .  S
Cu156       N166   2.102       .  S
Cu157       N159   2.059       .  S
Cu157       N165   2.061       .  S
N158        N159   1.317       .  A
N158        C162   1.343       .  A
N159        C160   1.342       .  A
C160        C161   1.388       .  A
C160        H163   1.082       .  S
C161       C1055   1.480       .  S
C161        C162   1.385       .  A
C162        H164   1.082       .  S
N165        N166   1.324       .  A
N165        C169   1.340       .  A
N166        C167   1.351       .  A
C167        C168   1.388       .  A
C167        H170   1.082       .  S
C168       C1584   1.473       .  S
C168        C169   1.376       .  A
C169        H171   1.082       .  S
C172        C954   1.580   1_565  S
C172        C968   1.584       .  S
C172        C982   1.574       .  S
C172        C996   1.585       .  S
N173        N174   1.324       .  A
N173        C177   1.355       .  A
N173       Cu181   2.116       .  S
N174        C175   1.337       .  A
N174       Cu180   2.058       .  S
C175        C176   1.379       .  A
C175        H178   1.082       .  S
C176       C1570   1.490       .  S
C176        C177   1.395       .  A
C177        H179   1.082       .  S
Cu180       N183   2.059       .  S
Cu181       N191   2.114       .  S
Cu182       N184   2.045       .  S
Cu182       N190   2.049       .  S
N183        N184   1.315       .  A
N183        C187   1.343       .  A
N184        C185   1.341       .  A
C185        C186   1.383       .  A
C185        H188   1.082       .  S
C186       C1041   1.472       .  S
C186        C187   1.387       .  A
C187        H189   1.082       .  S
N190        N191   1.322       .  A
N190        C194   1.333       .  A
N191        C192   1.357       .  A
C192        C193   1.398       .  A
C192        H195   1.082       .  S
C193        C971   1.492       .  S
C193        C194   1.378       .  A
C194        H196   1.082       .  S
N197        N198   1.322       .  A
N197        C201   1.355       .  A
N197       Cu205   2.103       .  S
N198        C199   1.334       .  A
N198       Cu204   2.050       .  S
C199        C200   1.378       .  A
C199        H202   1.082       .  S
C200       C1461   1.486       .  S
C200        C201   1.395       .  A
C201        H203   1.082       .  S
Cu204       N207   2.045       .  S
Cu205       N215   2.104       .  S
Cu206       N208   2.062       .  S
Cu206       N214   2.060       .  S
N207        N208   1.316       .  A
N207        C211   1.340       .  A
N208        C209   1.345       .  A
C209        C210   1.388       .  A
C209        H212   1.082       .  S
C210       C1027   1.474       .  S
C210        C211   1.381       .  A
C211        H213   1.082       .  S
N214        N215   1.324       .  A
N214        C218   1.337       .  A
N215        C216   1.353       .  A
C216        C217   1.394       .  A
C216        H219   1.082       .  S
C217       C1080   1.490       .  S
C217        C218   1.381       .  A
C218        H220   1.082       .  S
O221       Cu229   1.996       .  S
O221        C231   1.278       .  A
O222       Cu229   1.997       .  S
O222        C232   1.277       .  A
O223       Cu229   1.996       .  S
O223        C233   1.277       .  A
O224       Cu229   1.998       .  S
O224        C234   1.277       .  A
O225       Cu230   2.010       .  S
O225        C234   1.278       .  A
O226       Cu230   2.011       .  S
O226        C233   1.277       .  A
O227       Cu230   2.007       .  S
O227        C232   1.277       .  A
O228       Cu230   2.010       .  S
O228        C231   1.278       .  A
Cu229      Cu230   2.375       .  S
C231        C929   1.485       .  S
C232        C912   1.471       .  S
C233        C943   1.469       .  S
C234        C898   1.473       .  S
N235        N236   1.324       .  A
N235        C239   1.355   1_455  A
N235       Cu243   2.123       .  S
N236        C237   1.340       .  A
N236       Cu242   2.055       .  S
C237        C238   1.376       .  A
C237        H240   1.082       .  S
C238       C1391   1.484   1_455  S
C238        C239   1.393   1_455  A
C239        H241   1.082       .  S
Cu242       N245   2.054       .  S
Cu243       N253   2.123       .  S
Cu244       N246   2.053       .  S
Cu244       N252   2.056       .  S
N245        N246   1.318       .  A
N245        C249   1.343       .  A
N246        C247   1.343       .  A
C247        C248   1.384       .  A
C247        H250   1.082       .  S
C248        C926   1.473       .  S
C248        C249   1.382       .  A
C249        H251   1.082       .  S
N252        N253   1.325       .  A
N252        C256   1.340       .  A
N253        C254   1.355   1_455  A
C254        C255   1.392   1_655  A
C254        H257   1.082       .  S
C255       C1559   1.480   1_455  S
C255        C256   1.374       .  A
C256        H258   1.082       .  S
O259       Cu267   2.013       .  S
O259        C269   1.278       .  A
O260       Cu267   2.013       .  S
O260        C270   1.278       .  A
O261       Cu267   2.007       .  S
O261        C271   1.278       .  A
O262       Cu267   2.007       .  S
O262        C272   1.277       .  A
O263       Cu268   1.999       .  S
O263        C272   1.276       .  A
O264       Cu268   1.996       .  S
O264        C271   1.276       .  A
O265       Cu268   1.994       .  S
O265        C270   1.276       .  A
O266       Cu268   1.999       .  S
O266        C269   1.277       .  A
Cu267      Cu268   2.373       .  S
C269        C842   1.476       .  S
C270        C870   1.473       .  S
C271        C856   1.481       .  S
C272        C884   1.473       .  S
N273        N274   1.324       .  A
N273        C277   1.351   1_545  A
N273       Cu281   2.101   1_545  S
N274        C275   1.340       .  A
N274       Cu280   2.062       .  S
C275        C276   1.378   1_545  A
C275        H278   1.082       .  S
C276       C1444   1.476       .  S
C276        C277   1.388       .  A
C277        H279   1.082       .  S
Cu280       N283   2.060       .  S
Cu281       N291   2.100   1_565  S
Cu282       N284   2.054       .  S
Cu282       N290   2.057       .  S
N283        N284   1.318       .  A
N283        C287   1.344       .  A
N284        C285   1.343       .  A
C285        C286   1.383       .  A
C285        H288   1.082       .  S
C286        C873   1.481       .  S
C286        C287   1.387       .  A
C287        H289   1.082       .  S
N290        N291   1.324       .  A
N290        C294   1.338       .  A
N291        C292   1.353   1_545  A
C292        C293   1.388       .  A
C292        H295   1.082       .  S
C293       C1500   1.475       .  S
C293        C294   1.377   1_565  A
C294        H296   1.082       .  S
C297        C786   1.582   1_565  S
C297        C800   1.572       .  S
C297        C814   1.583       .  S
C297        C828   1.580       .  S
O298       Cu306   1.994       .  S
O298        C308   1.276       .  A
O299       Cu306   1.993   1_645  S
O299        C309   1.275       .  A
O300       Cu306   1.983   1_655  S
O300        C310   1.275       .  A
O301       Cu306   1.972   1_545  S
O301        C311   1.274       .  A
O302       Cu307   2.025   1_545  S
O302        C311   1.281       .  A
O303       Cu307   2.017   1_655  S
O303        C310   1.279       .  A
O304       Cu307   1.988   1_645  S
O304        C309   1.277       .  A
O305       Cu307   1.997       .  S
O305        C308   1.276       .  A
Cu306      Cu307   2.377       .  S
C308        C744   1.465       .  S
C309        C758   1.465       .  S
C310        C772   1.470       .  S
C311        C730   1.475       .  S
N312        N313   1.325       .  A
N312        C316   1.353       .  A
N312       Cu320   2.112       .  S
N313        C314   1.339       .  A
N313       Cu319   2.053       .  S
C314        C315   1.374       .  A
C314        H317   1.082       .  S
C315       C1416   1.474       .  S
C315        C316   1.389       .  A
C316        H318   1.082       .  S
Cu319       N322   2.045       .  S
Cu320       N330   2.112       .  S
Cu321       N323   2.049       .  S
Cu321       N329   2.045       .  S
N322        N323   1.317       .  A
N322        C326   1.340       .  A
N323        C324   1.344       .  A
C324        C325   1.383       .  A
C324        H327   1.082       .  S
C325        C775   1.478       .  S
C325        C326   1.384       .  A
C326        H328   1.082       .  S
N329        N330   1.323       .  A
N329        C333   1.338       .  A
N330        C331   1.353       .  A
C331        C332   1.393       .  A
C331        H334   1.081       .  S
C332       C1363   1.480       .  S
C332        C333   1.375       .  A
C333        H335   1.082       .  S
C336        C674   1.578   1_655  S
C336        C688   1.569       .  S
C336        C702   1.577       .  S
C336        C716   1.559       .  S
N337        N338   1.319       .  A
N337        C341   1.353       .  A
N337       Cu345   2.095       .  S
N338        C339   1.336       .  A
N338       Cu344   2.030       .  S
C339        C340   1.374       .  A
C339        H342   1.082       .  S
C340        C691   1.476       .  S
C340        C341   1.392       .  A
C341        H343   1.082       .  S
Cu344       N347   2.048       .  S
Cu345       N355   2.100       .  S
Cu346       N348   2.054       .  S
Cu346       N354   2.051       .  S
N347        N348   1.322       .  A
N347        C351   1.334       .  A
N348        C349   1.345       .  A
C349        C350   1.380       .  A
C349        H352   1.082       .  S
C350        C761   1.460       .  S
C350        C351   1.376       .  A
C351        H353   1.082       .  S
N354        N355   1.321       .  A
N354        C358   1.340       .  A
N355        C356   1.353       .  A
C356        C357   1.392       .  A
C356        H359   1.082       .  S
C357       C1405   1.483       .  S
C357        C358   1.378       .  A
C358        H360   1.082       .  S
N361        N362   1.324       .  A
N361        C365   1.353       .  A
N361       Cu369   2.112       .  S
N362        C363   1.339       .  A
N362       Cu368   2.046       .  S
C363        C364   1.375       .  A
C363        H366   1.082       .  S
C364        C803   1.477       .  S
C364        C365   1.390       .  A
C365        H367   1.082       .  S
Cu368       N371   2.046       .  S
Cu369       N379   2.113       .  S
Cu370       N372   2.044       .  S
Cu370       N378   2.053       .  S
N371        N372   1.318       .  A
N371        C375   1.344       .  A
N372        C373   1.341       .  A
C373        C374   1.381       .  A
C373        H376   1.082       .  S
C374        C747   1.474       .  S
C374        C375   1.380       .  A
C375        H377   1.082       .  S
N378        N379   1.325       .  A
N378        C382   1.340       .  A
N379        C380   1.352       .  A
C380        C381   1.389       .  A
C380        H383   1.082       .  S
C381       C1349   1.478       .  S
C381        C382   1.376       .  A
C382        H384   1.082       .  S
N385        N386   1.324       .  A
N385        C389   1.357   1_545  A
N385       Cu393   2.120       .  S
N386        C387   1.336       .  A
N386       Cu392   2.052       .  S
C387        C388   1.377       .  A
C387        H390   1.082       .  S
C388        C817   1.488       .  S
C388        C389   1.395   1_545  A
C389        H391   1.082       .  S
Cu392       N395   2.049       .  S
Cu393       N403   2.120       .  S
Cu394       N396   2.056       .  S
Cu394       N402   2.054       .  S
N395        N396   1.316       .  A
N395        C399   1.341       .  A
N396        C397   1.344       .  A
C397        C398   1.387       .  A
C397        H400   1.082       .  S
C398        C887   1.477       .  S
C398        C399   1.384       .  A
C399        H401   1.082       .  S
N402        N403   1.324       .  A
N402        C406   1.337       .  A
N403        C404   1.356   1_545  A
C404        C405   1.394   1_565  A
C404        H407   1.082       .  S
C405       C1489   1.482       .  S
C405        C406   1.376       .  A
C406        H408   1.082       .  S
N409        N410   1.325       .  A
N409        C413   1.354   1_455  A
N409       Cu417   2.104       .  S
N410        C411   1.336       .  A
N410       Cu416   2.059       .  S
C411        C412   1.376   1_455  A
C411        H414   1.082       .  S
C412        C705   1.478       .  S
C412        C413   1.390       .  A
C413        H415   1.082       .  S
Cu416       N419   2.057       .  S
Cu417       N427   2.103       .  S
Cu418       N420   2.046       .  S
Cu418       N426   2.049       .  S
N419        N420   1.315       .  A
N419        C423   1.344       .  A
N420        C421   1.341       .  A
C421        C422   1.386       .  A
C421        H424   1.082       .  S
C422        C940   1.479       .  S
C422        C423   1.387       .  A
C423        H425   1.082       .  S
N426        N427   1.322       .  A
N426        C430   1.334       .  A
N427        C428   1.354   1_455  A
C428        C429   1.396   1_655  A
C428        H431   1.081       .  S
C429       C1542   1.490   1_455  S
C429        C430   1.378       .  A
C430        H432   1.082       .  S
N433        N434   1.324       .  A
N433        C437   1.357       .  A
N433       Cu441   2.128       .  S
N434        C435   1.337       .  A
N434       Cu440   2.044       .  S
C435        C436   1.374       .  A
C435        H438   1.082       .  S
C436        C677   1.482       .  S
C436        C437   1.395       .  A
C437        H439   1.082       .  S
Cu440       N443   2.039       .  S
Cu441       N451   2.128       .  S
Cu442       N444   2.046       .  S
Cu442       N450   2.048       .  S
N443        N444   1.316       .  A
N443        C447   1.342       .  A
N444        C445   1.342       .  A
C445        C446   1.383       .  A
C445        H448   1.082       .  S
C446        C733   1.476       .  S
C446        C447   1.382       .  A
C447        H449   1.082       .  S
N450        N451   1.325       .  A
N450        C454   1.338       .  A
N451        C452   1.356       .  A
C452        C453   1.394       .  A
C452        H455   1.082       .  S
C453        C789   1.486       .  S
C453        C454   1.376       .  A
C454        H456   1.082       .  S
N457        N458   1.325       .  A
N457        C461   1.353       .  A
N457       Cu465   2.107       .  S
N458        C459   1.337       .  A
N458       Cu464   2.054       .  S
C459        C460   1.376       .  A
C459        H462   1.082       .  S
C460       C1433   1.479       .  S
C460        C461   1.391       .  A
C461        H463   1.082   1_545  S
Cu464       N467   2.055       .  S
Cu465       N475   2.106       .  S
Cu466       N468   2.044       .  S
Cu466       N474   2.049       .  S
N467        N468   1.315       .  A
N467        C471   1.344       .  A
N468        C469   1.340       .  A
C469        C470   1.384       .  A
C469        H472   1.082       .  S
C470        C859   1.474       .  S
C470        C471   1.385       .  A
C471        H473   1.082       .  S
N474        N475   1.323       .  A
N474        C478   1.334       .  A
N475        C476   1.355       .  A
C476        C477   1.395       .  A
C476        H479   1.082   1_545  S
C477        C999   1.485       .  S
C477        C478   1.377       .  A
C478        H480   1.082       .  S
N481        N482   1.324       .  A
N481        C485   1.353   1_455  A
N481       Cu489   2.106       .  S
N482        C483   1.338       .  A
N482       Cu488   2.054       .  S
C483        C484   1.375   1_455  A
C483        H486   1.082       .  S
C484       C1374   1.474       .  S
C484        C485   1.390       .  A
C485        H487   1.082       .  S
Cu488       N491   2.053       .  S
Cu489       N499   2.107       .  S
Cu490       N492   2.057       .  S
Cu490       N498   2.056       .  S
N491        N492   1.317       .  A
N491        C495   1.343       .  A
N492        C493   1.343       .  A
C493        C494   1.386       .  A
C493        H496   1.082       .  S
C494        C901   1.480       .  S
C494        C495   1.384       .  A
C495        H497   1.082       .  S
N498        N499   1.324       .  A
N498        C502   1.339       .  A
N499        C500   1.352       .  A
C500        C501   1.391       .  A
C500        H503   1.082   1_455  S
C501       C1223   1.483       .  S
C501        C502   1.378       .  A
C502        H504   1.081       .  S
N505        N506   1.324       .  A
N505        C509   1.354   1_554  A
N505       Cu513   2.111   1_554  S
N506        C507   1.337       .  A
N506       Cu512   2.056       .  S
C507        C508   1.377       .  A
C507        H510   1.082       .  S
C508       C1097   1.488   1_554  S
C508        C509   1.395   1_554  A
C509        H511   1.082       .  S
Cu512       N515   2.056       .  S
Cu513       N523   2.109   1_556  S
Cu514       N516   2.042       .  S
Cu514       N522   2.045       .  S
N515        N516   1.315       .  A
N515        C519   1.343       .  A
N516        C517   1.340       .  A
C517        C518   1.383       .  A
C517        H520   1.082       .  S
C518       C1164   1.478       .  S
C518        C519   1.389       .  A
C519        H521   1.082       .  S
N522        N523   1.321       .  A
N522        C526   1.332       .  A
N523        C524   1.357   1_554  A
C524        C525   1.399       .  A
C524        H527   1.081       .  S
C525       C1657   1.493       .  S
C525        C526   1.379   1_556  A
C526        H528   1.082       .  S
N529        N530   1.323       .  A
N529        C533   1.356       .  A
N529       Cu537   2.115       .  S
N530        C531   1.334       .  A
N530       Cu536   2.051       .  S
C531        C532   1.379       .  A
C531        H534   1.082       .  S
C532       C1069   1.494       .  S
C532        C533   1.398       .  A
C533        H535   1.082       .  S
Cu536       N539   2.047       .  S
Cu537       N547   2.116       .  S
Cu538       N540   2.052       .  S
Cu538       N546   2.055       .  S
N539        N540   1.315       .  A
N539        C543   1.342       .  A
N540        C541   1.342       .  A
C541        C542   1.387       .  A
C541        H544   1.082       .  S
C542       C1013   1.474       .  S
C542        C543   1.383       .  A
C543        H545   1.082       .  S
N546        N547   1.325       .  A
N546        C550   1.337       .  A
N547        C548   1.356       .  A
C548        C549   1.393       .  A
C548        H551   1.082       .  S
C549        C957   1.482       .  S
C549        C550   1.375       .  A
C550        H552   1.082       .  S
N553        N554   1.324       .  A
N553        C557   1.353   1_554  A
N553       Cu561   2.101   1_554  S
N554        C555   1.339       .  A
N554       Cu560   2.056       .  S
C555        C556   1.375   1_554  A
C555        H558   1.082       .  S
C556       C1321   1.474       .  S
C556        C557   1.388       .  A
C557        H559   1.082       .  S
Cu560       N563   2.053       .  S
Cu561       N571   2.101   1_556  S
Cu562       N564   2.058       .  S
Cu562       N570   2.058       .  S
N563        N564   1.318       .  A
N563        C567   1.342       .  A
N564        C565   1.344       .  A
C565        C566   1.385       .  A
C565        H568   1.081       .  S
C566       C1139   1.474       .  S
C566        C567   1.382       .  A
C567        H569   1.082       .  S
N570        N571   1.324       .  A
N570        C574   1.340       .  A
N571        C572   1.351   1_554  A
C572        C573   1.388       .  A
C572        H575   1.082       .  S
C573       C1601   1.474       .  S
C573        C574   1.376   1_556  A
C574        H576   1.082       .  S
N577        N578   1.323       .  A
N577        C581   1.358       .  A
N577       Cu585   2.123       .  S
N578        C579   1.334       .  A
N578       Cu584   2.045       .  S
C579        C580   1.377       .  A
C579        H582   1.082       .  S
C580       C1293   1.490       .  S
C580        C581   1.398       .  A
C581        H583   1.082       .  S
Cu584       N587   2.041       .  S
Cu585       N595   2.124       .  S
Cu586       N588   2.056       .  S
Cu586       N594   2.055       .  S
N587        N588   1.315       .  A
N587        C591   1.340       .  A
N588        C589   1.344       .  A
C589        C590   1.386       .  A
C589        H592   1.082       .  S
C590       C1237   1.472       .  S
C590        C591   1.381       .  A
C591        H593   1.082       .  S
N594        N595   1.326       .  A
N594        C598   1.338       .  A
N595        C596   1.356       .  A
C596        C597   1.393       .  A
C596        H599   1.082       .  S
C597       C1181   1.482       .  S
C597        C598   1.374       .  A
C598        H600   1.082       .  S
N601        N602   1.324       .  A
N601        C605   1.348       .  A
N601       Cu609   2.082       .  S
N602        C603   1.340       .  A
N602       Cu608   2.057       .  S
C603        C604   1.375       .  A
C603        H606   1.082       .  S
C604        C719   1.465       .  S
C604        C605   1.382       .  A
C605        H607   1.082   1_455  S
Cu608       N611   2.052       .  S
Cu609       N619   2.082       .  S
Cu610       N612   2.060       .  S
Cu610       N618   2.060       .  S
N611        N612   1.318       .  A
N611        C615   1.342       .  A
N612        C613   1.343       .  A
C613        C614   1.385       .  A
C613        H616   1.082       .  S
C614        C915   1.480       .  S
C614        C615   1.385       .  A
C615        H617   1.081       .  S
N618        N619   1.323       .  A
N618        C622   1.340       .  A
N619        C620   1.348       .  A
C620        C621   1.384       .  A
C620        H623   1.082   1_455  S
C621       C1206   1.467       .  S
C621        C622   1.377       .  A
C622        H624   1.082       .  S
N625        N626   1.325       .  A
N625        C629   1.353   1_545  A
N625       Cu633   2.108       .  S
N626        C627   1.338       .  A
N626       Cu632   2.049       .  S
C627        C628   1.372       .  A
C627        H630   1.082       .  S
C628        C831   1.472       .  S
C628        C629   1.389   1_545  A
C629        H631   1.082       .  S
Cu632       N635   2.047       .  S
Cu633       N643   2.107       .  S
Cu634       N636   2.061       .  S
Cu634       N642   2.059       .  S
N635        N636   1.316       .  A
N635        C639   1.342       .  A
N636        C637   1.344       .  A
C637        C638   1.388       .  A
C637        H640   1.082       .  S
C638        C845   1.479       .  S
C638        C639   1.384       .  A
C639        H641   1.082       .  S
N642        N643   1.323       .  A
N642        C646   1.336       .  A
N643        C644   1.354       .  A
C644        C645   1.396       .  A
C644        H647   1.082   1_545  S
C645        C985   1.493       .  S
C645        C646   1.382       .  A
C646        H648   1.082       .  S
N649        N650   1.323       .  A
N649        C653   1.356   1_554  A
N649       Cu657   2.107       .  S
N650        C651   1.332       .  A
N650       Cu656   2.047       .  S
C651        C652   1.378       .  A
C651        H654   1.082       .  S
C652       C1111   1.487   1_554  S
C652        C653   1.396   1_554  A
C653        H655   1.081       .  S
Cu656       N659   2.043       .  S
Cu657       N667   2.109       .  S
Cu658       N660   2.056       .  S
Cu658       N666   2.054       .  S
N659        N660   1.315       .  A
N659        C663   1.341       .  A
N660        C661   1.344       .  A
C661        C662   1.387       .  A
C661        H664   1.082       .  S
C662       C1125   1.474       .  S
C662        C663   1.383       .  A
C663        H665   1.082       .  S
N666        N667   1.324       .  A
N666        C670   1.336       .  A
N667        C668   1.354   1_554  A
C668        C669   1.392   1_556  A
C668        H671   1.082       .  S
C669       C1335   1.481   1_554  S
C669        C670   1.376       .  A
C670        H672   1.082       .  S
C673        C674   1.419       .  A
C673        C678   1.410       .  A
C673        H680   1.079   1_455  S
C674        C675   1.430       .  A
C675        C676   1.398       .  A
C675        N682   1.433       .  S
C676        C677   1.395       .  A
C676        H681   1.085       .  S
C677        C678   1.411       .  A
C678        N679   1.432       .  S
N679        H683   1.045       .  S
N679        H684   1.045       .  S
N682        H685   1.046       .  S
N682        H686   1.046       .  S
C687        C688   1.413       .  A
C687        C692   1.396       .  A
C687        H694   1.083       .  S
C688        C689   1.441       .  A
C689        C690   1.409       .  A
C689        N696   1.439       .  S
C690        C691   1.392       .  A
C690        H695   1.084       .  S
C691        C692   1.410       .  A
C692        N693   1.433       .  S
N693        H697   1.043       .  S
N693        H698   1.046       .  S
N696        H699   1.041       .  S
N696        H700   1.046       .  S
C701        C702   1.420       .  A
C701        C706   1.399   1_655  A
C701        H708   1.080   1_655  S
C702        C703   1.424       .  A
C703        C704   1.411       .  A
C703        N710   1.429       .  S
C704        C705   1.400       .  A
C704        H709   1.084       .  S
C705        C706   1.403   1_655  A
C706        N707   1.439       .  S
N707        H711   1.046       .  S
N707        H712   1.045       .  S
N710        H713   1.046       .  S
N710        H714   1.045       .  S
C715        C716   1.415       .  A
C715        C720   1.401       .  A
C715        H722   1.077       .  S
C716        C717   1.428       .  A
C717        C718   1.397       .  A
C717        N724   1.434       .  S
C718        C719   1.392   1_655  A
C718        H723   1.085       .  S
C719        C720   1.411   1_455  A
C720        N721   1.439   1_655  S
N721        H725   1.046   1_455  S
N721        H726   1.043       .  S
N724        H727   1.046   1_655  S
N724        H728   1.046       .  S
C729        C730   1.406       .  A
C729        C734   1.401       .  A
C729        H736   1.084       .  S
C730        C731   1.409       .  A
C731        C732   1.405       .  A
C731        N738   1.438       .  S
C732        C733   1.408       .  A
C732        H737   1.083       .  S
C733        C734   1.406       .  A
C734        N735   1.438       .  S
N735        H739   1.046       .  S
N735        H740   1.044       .  S
N738        H741   1.046       .  S
N738        H742   1.046       .  S
C743        C744   1.399       .  A
C743        C748   1.399       .  A
C743        H750   1.084       .  S
C744        C745   1.407       .  A
C745        C746   1.401       .  A
C745        N752   1.432       .  S
C746        C747   1.400       .  A
C746        H751   1.084       .  S
C747        C748   1.414       .  A
C748        N749   1.433       .  S
N749        H753   1.046       .  S
N749        H754   1.046       .  S
N752        H755   1.046       .  S
N752        H756   1.045       .  S
C757        C758   1.399       .  A
C757        C762   1.391       .  A
C757        H764   1.084       .  S
C758        C759   1.414       .  A
C759        C760   1.405       .  A
C759        N766   1.437       .  S
C760        C761   1.399       .  A
C760        H765   1.084       .  S
C761        C762   1.406       .  A
C762        N763   1.433       .  S
N763        H767   1.045       .  S
N763        H768   1.046       .  S
N766        H769   1.045       .  S
N766        H770   1.046       .  S
C771        C772   1.405       .  A
C771        C776   1.398       .  A
C771        H778   1.084       .  S
C772        C773   1.419       .  A
C773        C774   1.398       .  A
C773        N780   1.440       .  S
C774        C775   1.405       .  A
C774        H779   1.084       .  S
C775        C776   1.409       .  A
C776        N777   1.432       .  S
N777        H781   1.044       .  S
N777        H782   1.045       .  S
N780        H783   1.040       .  S
N780        H784   1.046       .  S
C785        C786   1.419       .  A
C785        C790   1.396       .  A
C785        H792   1.083       .  S
C786        C787   1.435       .  A
C787        C788   1.417       .  A
C787        N794   1.437   1_545  S
C788        C789   1.401       .  A
C788        H793   1.084       .  S
C789        C790   1.410       .  A
C790        N791   1.438       .  S
N791        H795   1.046       .  S
N791        H796   1.044       .  S
N794        H797   1.042       .  S
N794        H798   1.045       .  S
C799        C800   1.423       .  A
C799        C804   1.402       .  A
C799        H806   1.076       .  S
C800        C801   1.437       .  A
C801        C802   1.400       .  A
C801        N808   1.434       .  S
C802        C803   1.398       .  A
C802        H807   1.085       .  S
C803        C804   1.406       .  A
C804        N805   1.439       .  S
N805        H809   1.046       .  S
N805        H810   1.043       .  S
N808        H811   1.041       .  S
N808        H812   1.042       .  S
C813        C814   1.418   1_545  A
C813        C818   1.396       .  A
C813        H820   1.079       .  S
C814        C815   1.438       .  A
C815        C816   1.409       .  A
C815        N822   1.434       .  S
C816        C817   1.400   1_565  A
C816        H821   1.084       .  S
C817        C818   1.412       .  A
C818        N819   1.438       .  S
N819        H823   1.045       .  S
N819        H824   1.044       .  S
N822        H825   1.041       .  S
N822        H826   1.043       .  S
C827        C828   1.420       .  A
C827        C832   1.401   1_565  A
C827        H834   1.077   1_565  S
C828        C829   1.428       .  A
C829        C830   1.403       .  A
C829        N836   1.430       .  S
C830        C831   1.394   1_565  A
C830        H835   1.084       .  S
C831        C832   1.410       .  A
C832        N833   1.439       .  S
N833        H837   1.046       .  S
N833        H838   1.043       .  S
N836        H839   1.046       .  S
N836        H840   1.046   1_565  S
C841        C842   1.404       .  A
C841        C846   1.400       .  A
C841        H848   1.084       .  S
C842        C843   1.419       .  A
C843        C844   1.399       .  A
C843        N850   1.441       .  S
C844        C845   1.403       .  A
C844        H849   1.084       .  S
C845        C846   1.412       .  A
C846        N847   1.432       .  S
N847        H851   1.044       .  S
N847        H852   1.045       .  S
N850        H853   1.042       .  S
N850        H854   1.046       .  S
C855        C856   1.408       .  A
C855        C860   1.403       .  A
C855        H862   1.084       .  S
C856        C857   1.414       .  A
C857        C858   1.400       .  A
C857        N864   1.439       .  S
C858        C859   1.403       .  A
C858        H863   1.084       .  S
C859        C860   1.412       .  A
C860        N861   1.438       .  S
N861        H865   1.046       .  S
N861        H866   1.043       .  S
N864        H867   1.045       .  S
N864        H868   1.046       .  S
C869        C870   1.401       .  A
C869        C874   1.401       .  A
C869        H876   1.084       .  S
C870        C871   1.417       .  A
C871        C872   1.402       .  A
C871        N878   1.438       .  S
C872        C873   1.403       .  A
C872        H877   1.084       .  S
C873        C874   1.415       .  A
C874        N875   1.438       .  S
N875        H879   1.046       .  S
N875        H880   1.046       .  S
N878        H881   1.042       .  S
N878        H882   1.045       .  S
C883        C884   1.403       .  A
C883        C888   1.406       .  A
C883        H890   1.084       .  S
C884        C885   1.414       .  A
C885        C886   1.396       .  A
C885        N892   1.433       .  S
C886        C887   1.404       .  A
C886        H891   1.083       .  S
C887        C888   1.410       .  A
C888        N889   1.437       .  S
N889        H893   1.046       .  S
N889        H894   1.045       .  S
N892        H895   1.046       .  S
N892        H896   1.044       .  S
C897        C898   1.401       .  A
C897        C902   1.399       .  A
C897        H904   1.085       .  S
C898        C899   1.419       .  A
C899        C900   1.404       .  A
C899        N906   1.440       .  S
C900        C901   1.403       .  A
C900        H905   1.084       .  S
C901        C902   1.411       .  A
C902        N903   1.432       .  S
N903        H907   1.046       .  S
N903        H908   1.046       .  S
N906        H909   1.042       .  S
N906        H910   1.046       .  S
C911        C912   1.400       .  A
C911        C916   1.398       .  A
C911        H918   1.085       .  S
C912        C913   1.418       .  A
C913        C914   1.403       .  A
C913        N920   1.440       .  S
C914        C915   1.403       .  A
C914        H919   1.084       .  S
C915        C916   1.413       .  A
C916        N917   1.432       .  S
N917        H921   1.046       .  S
N917        H922   1.046       .  S
N920        H923   1.042       .  S
N920        H924   1.046       .  S
C925        C926   1.400       .  A
C925        C930   1.408       .  A
C925        H932   1.084       .  S
C926        C927   1.418       .  A
C927        C928   1.395       .  A
C927        N934   1.439       .  S
C928        C929   1.404       .  A
C928        H933   1.084       .  S
C929        C930   1.416       .  A
C930        N931   1.437       .  S
N931        H935   1.046       .  S
N931        H936   1.046       .  S
N934        H937   1.041       .  S
N934        H938   1.046       .  S
C939        C940   1.405       .  A
C939        C944   1.396       .  A
C939        H946   1.083       .  S
C940        C941   1.410       .  A
C941        C942   1.406       .  A
C941        N948   1.437       .  S
C942        C943   1.403       .  A
C942        H947   1.084       .  S
C943        C944   1.414       .  A
C944        N945   1.439       .  S
N945        H949   1.046       .  S
N945        H950   1.043       .  S
N948        H951   1.045       .  S
N948        H952   1.046       .  S
C953        C954   1.417       .  A
C953        C958   1.402       .  A
C953        H960   1.083   1_545  S
C954        C955   1.436       .  A
C955        C956   1.413       .  A
C955        N962   1.436       .  S
C956        C957   1.396       .  A
C956        H961   1.084       .  S
C957        C958   1.406       .  A
C958        N959   1.433       .  S
N959        H963   1.045       .  S
N959        H964   1.046       .  S
N962        H965   1.045       .  S
N962        H966   1.046       .  S
C967        C968   1.424       .  A
C967        C972   1.410       .  A
C967        H974   1.083       .  S
C968        C969   1.432       .  A
C969        C970   1.397       .  A
C969        N976   1.429       .  S
C970        C971   1.398       .  A
C970        H975   1.085       .  S
C971        C972   1.415       .  A
C972        N973   1.437       .  S
N973        H977   1.045       .  S
N973        H978   1.040       .  S
N976        H979   1.046       .  S
N976        H980   1.046       .  S
C981        C982   1.422       .  A
C981        C986   1.410       .  A
C981        H988   1.077       .  S
C982        C983   1.438   1_565  A
C983        C984   1.396       .  A
C983        N990   1.441       .  S
C984        C985   1.399       .  A
C984        H989   1.084       .  S
C985        C986   1.415   1_545  A
C986        N987   1.439       .  S
N987        H991   1.046       .  S
N987        H992   1.040       .  S
N990        H993   1.034       .  S
N990        H994   1.046       .  S
C995        C996   1.426       .  A
C995       C1000   1.410       .  A
C995       H1002   1.084       .  S
C996        C997   1.434   1_565  A
C997        C998   1.396       .  A
C997       N1004   1.429       .  S
C998        C999   1.395       .  A
C998       H1003   1.085       .  S
C999       C1000   1.413   1_545  A
C1000      N1001   1.438       .  S
N1001      H1005   1.046       .  S
N1001      H1006   1.041       .  S
N1004      H1007   1.046       .  S
N1004      H1008   1.046       .  S
C1009      C1010   1.407       .  A
C1009      C1014   1.403       .  A
C1009      H1016   1.084       .  S
C1010      C1011   1.414       .  A
C1011      C1012   1.399       .  A
C1011      N1018   1.439       .  S
C1012      C1013   1.403       .  A
C1012      H1017   1.084       .  S
C1013      C1014   1.413       .  A
C1014      N1015   1.438       .  S
N1015      H1019   1.046       .  S
N1015      H1020   1.044       .  S
N1018      H1021   1.045       .  S
N1018      H1022   1.046       .  S
C1023      C1024   1.404       .  A
C1023      C1028   1.402       .  A
C1023      H1030   1.084       .  S
C1024      C1025   1.413       .  A
C1025      C1026   1.407       .  A
C1025      N1032   1.437       .  S
C1026      C1027   1.401       .  A
C1026      H1031   1.084       .  S
C1027      C1028   1.412       .  A
C1028      N1029   1.439       .  S
N1029      H1033   1.046       .  S
N1029      H1034   1.046       .  S
N1032      H1035   1.045       .  S
N1032      H1036   1.046       .  S
C1037      C1038   1.407       .  A
C1037      C1042   1.402       .  A
C1037      H1044   1.084       .  S
C1038      C1039   1.416       .  A
C1039      C1040   1.400       .  A
C1039      N1046   1.438       .  S
C1040      C1041   1.401       .  A
C1040      H1045   1.084       .  S
C1041      C1042   1.412       .  A
C1042      N1043   1.438       .  S
N1043      H1047   1.046       .  S
N1043      H1048   1.044       .  S
N1046      H1049   1.045       .  S
N1046      H1050   1.046       .  S
C1051      C1052   1.402       .  A
C1051      C1056   1.404       .  A
C1051      H1058   1.084       .  S
C1052      C1053   1.418       .  A
C1053      C1054   1.398       .  A
C1053      N1060   1.441       .  S
C1054      C1055   1.404       .  A
C1054      H1059   1.083       .  S
C1055      C1056   1.409       .  A
C1056      N1057   1.432       .  S
N1057      H1061   1.046       .  S
N1057      H1062   1.046       .  S
N1060      H1063   1.041       .  S
N1060      H1064   1.046       .  S
C1065      C1066   1.423       .  A
C1065      C1070   1.409       .  A
C1065      H1072   1.084       .  S
C1066      C1067   1.430       .  A
C1067      C1068   1.397       .  A
C1067      N1074   1.431       .  S
C1068      C1069   1.400       .  A
C1068      H1073   1.084       .  S
C1069      C1070   1.416       .  A
C1070      N1071   1.436       .  S
N1071      H1075   1.045       .  S
N1071      H1076   1.041       .  S
N1074      H1077   1.046       .  S
N1074      H1078   1.046       .  S
C1079      C1080   1.401       .  A
C1079      C1084   1.395       .  A
C1079      H1086   1.084       .  S
C1080      C1081   1.417       .  A
C1081      C1082   1.409       .  A
C1081      N1088   1.439       .  S
C1082      C1083   1.419       .  A
C1082      H1087   1.078       .  S
C1083      C1084   1.424       .  A
C1084      N1085   1.433       .  S
N1085      H1089   1.046       .  S
N1085      H1090   1.046       .  S
N1088      H1091   1.040       .  S
N1088      H1092   1.046       .  S
C1093      C1094   1.420       .  A
C1093      C1098   1.405       .  A
C1093      H1100   1.078       .  S
C1094      C1095   1.424   1_556  A
C1095      C1096   1.402       .  A
C1095      N1102   1.433       .  S
C1096      C1097   1.404   1_554  A
C1096      H1101   1.084       .  S
C1097      C1098   1.414       .  A
C1098      N1099   1.438       .  S
N1099      H1103   1.046       .  S
N1099      H1104   1.039       .  S
N1102      H1105   1.045       .  S
N1102      H1106   1.046       .  S
C1107      C1108   1.424       .  A
C1107      C1112   1.406       .  A
C1107      H1114   1.084       .  S
C1108      C1109   1.432   1_556  A
C1109      C1110   1.396       .  A
C1109      N1116   1.430       .  S
C1110      C1111   1.397   1_554  A
C1110      H1115   1.085       .  S
C1111      C1112   1.408       .  A
C1112      N1113   1.431       .  S
N1113      H1117   1.045       .  S
N1113      H1118   1.044       .  S
N1116      H1119   1.046       .  S
N1116      H1120   1.046       .  S
C1121      C1122   1.403       .  A
C1121      C1126   1.400       .  A
C1121      H1128   1.084       .  S
C1122      C1123   1.410       .  A
C1123      C1124   1.402       .  A
C1123      N1130   1.438       .  S
C1124      C1125   1.405       .  A
C1124      H1129   1.084       .  S
C1125      C1126   1.414       .  A
C1126      N1127   1.438       .  S
N1127      H1131   1.046       .  S
N1127      H1132   1.043       .  S
N1130      H1133   1.046       .  S
N1130      H1134   1.046       .  S
C1135      C1136   1.403       .  A
C1135      C1140   1.402       .  A
C1135      H1142   1.084       .  S
C1136      C1137   1.414       .  A
C1137      C1138   1.406       .  A
C1137      N1144   1.438       .  S
C1138      C1139   1.400       .  A
C1138      H1143   1.084       .  S
C1139      C1140   1.413       .  A
C1140      N1141   1.438       .  S
N1141      H1145   1.046       .  S
N1141      H1146   1.044       .  S
N1144      H1147   1.046       .  S
N1144      H1148   1.046       .  S
C1149      C1150   1.401       .  A
C1149      C1154   1.398       .  A
C1149      H1156   1.084       .  S
C1150      C1151   1.416       .  A
C1151      C1152   1.404       .  A
C1151      N1158   1.438       .  S
C1152      C1153   1.402       .  A
C1152      H1157   1.084       .  S
C1153      C1154   1.416       .  A
C1154      N1155   1.433       .  S
N1155      H1159   1.044       .  S
N1155      H1160   1.046       .  S
N1158      H1161   1.046       .  S
N1158      H1162   1.046       .  S
C1163      C1164   1.404       .  A
C1163      C1168   1.397       .  A
C1163      H1170   1.083       .  S
C1164      C1165   1.410       .  A
C1165      C1166   1.405       .  A
C1165      N1172   1.437       .  S
C1166      C1167   1.403       .  A
C1166      H1171   1.084       .  S
C1167      C1168   1.416       .  A
C1168      N1169   1.438       .  S
N1169      H1173   1.046       .  S
N1169      H1174   1.043       .  S
N1172      H1175   1.045       .  S
N1172      H1176   1.046       .  S
C1177      C1178   1.416       .  A
C1177      C1182   1.395       .  A
C1177      H1184   1.077       .  S
C1178      C1179   1.438       .  A
C1179      C1180   1.412       .  A
C1179      N1186   1.432       .  S
C1180      C1181   1.396       .  A
C1180      H1185   1.084       .  S
C1181      C1182   1.409       .  A
C1182      N1183   1.434       .  S
N1183      H1187   1.046       .  S
N1183      H1188   1.043       .  S
N1186      H1189   1.046       .  S
N1186      H1190   1.046       .  S
C1191      C1192   1.420       .  A
C1191      C1196   1.399       .  A
C1191      H1198   1.080       .  S
C1192      C1193   1.435       .  A
C1193      C1194   1.398       .  A
C1193      N1200   1.430       .  S
C1194      C1195   1.395       .  A
C1194      H1199   1.084       .  S
C1195      C1196   1.405       .  A
C1196      N1197   1.432       .  S
N1197      H1201   1.045       .  S
N1197      H1202   1.045       .  S
N1200      H1203   1.040       .  S
N1200      H1204   1.042       .  S
C1205      C1206   1.395   1_655  A
C1205      C1210   1.402       .  A
C1205      H1212   1.084       .  S
C1206      C1207   1.407   1_455  A
C1207      C1208   1.399       .  A
C1207      N1214   1.438   1_655  S
C1208      C1209   1.417       .  A
C1208      H1213   1.083       .  S
C1209      C1210   1.431       .  A
C1210      N1211   1.432       .  S
N1211      H1215   1.046       .  S
N1211      H1216   1.046       .  S
N1214      H1217   1.044       .  S
N1214      H1218   1.046       .  S
C1219      C1220   1.414   1_455  A
C1219      C1224   1.392       .  A
C1219      H1226   1.080       .  S
C1220      C1221   1.438       .  A
C1221      C1222   1.415       .  A
C1221      N1228   1.437       .  S
C1222      C1223   1.398   1_655  A
C1222      H1227   1.084       .  S
C1223      C1224   1.409       .  A
C1224      N1225   1.434       .  S
N1225      H1229   1.046       .  S
N1225      H1230   1.042       .  S
N1228      H1231   1.042       .  S
N1228      H1232   1.046       .  S
C1233      C1234   1.404       .  A
C1233      C1238   1.401       .  A
C1233      H1240   1.084       .  S
C1234      C1235   1.415       .  A
C1235      C1236   1.406       .  A
C1235      N1242   1.437       .  S
C1236      C1237   1.400       .  A
C1236      H1241   1.084       .  S
C1237      C1238   1.412       .  A
C1238      N1239   1.439       .  S
N1239      H1243   1.046       .  S
N1239      H1244   1.044       .  S
N1242      H1245   1.045       .  S
N1242      H1246   1.046       .  S
C1247      C1248   1.402       .  A
C1247      C1252   1.400       .  A
C1247      H1254   1.084       .  S
C1248      C1249   1.417       .  A
C1249      C1250   1.401       .  A
C1249      N1256   1.437       .  S
C1250      C1251   1.401       .  A
C1250      H1255   1.084       .  S
C1251      C1252   1.414       .  A
C1252      N1253   1.439       .  S
N1253      H1257   1.046       .  S
N1253      H1258   1.046       .  S
N1256      H1259   1.042       .  S
N1256      H1260   1.045       .  S
C1261      C1262   1.404       .  A
C1261      C1266   1.402       .  A
C1261      H1268   1.084       .  S
C1262      C1263   1.409       .  A
C1263      C1264   1.400       .  A
C1263      N1270   1.439       .  S
C1264      C1265   1.406       .  A
C1264      H1269   1.084       .  S
C1265      C1266   1.414       .  A
C1266      N1267   1.438       .  S
N1267      H1271   1.046       .  S
N1267      H1272   1.043       .  S
N1270      H1273   1.046       .  S
N1270      H1274   1.046       .  S
C1275      C1276   1.405       .  A
C1275      C1280   1.403       .  A
C1275      H1282   1.084       .  S
C1276      C1277   1.412       .  A
C1277      C1278   1.401       .  A
C1277      N1284   1.439       .  S
C1278      C1279   1.404       .  A
C1278      H1283   1.084       .  S
C1279      C1280   1.415       .  A
C1280      N1281   1.438       .  S
N1281      H1285   1.045       .  S
N1281      H1286   1.043       .  S
N1284      H1287   1.046       .  S
N1284      H1288   1.046       .  S
C1289      C1290   1.416       .  A
C1289      C1294   1.394       .  A
C1289      H1296   1.079       .  S
C1290      C1291   1.433       .  A
C1291      C1292   1.418       .  A
C1291      N1298   1.439       .  S
C1292      C1293   1.402       .  A
C1292      H1297   1.083       .  S
C1293      C1294   1.412       .  A
C1294      N1295   1.441       .  S
N1295      H1299   1.046       .  S
N1295      H1300   1.044       .  S
N1298      H1301   1.041   1_554  S
N1298      H1302   1.045       .  S
C1303      C1304   1.419       .  A
C1303      C1308   1.399       .  A
C1303      H1310   1.084       .  S
C1304      C1305   1.431       .  A
C1305      C1306   1.406       .  A
C1305      N1312   1.432       .  S
C1306      C1307   1.397       .  A
C1306      H1311   1.085       .  S
C1307      C1308   1.408       .  A
C1308      N1309   1.438       .  S
N1309      H1313   1.046       .  S
N1309      H1314   1.044       .  S
N1312      H1315   1.046       .  S
N1312      H1316   1.046       .  S
C1317      C1318   1.417       .  A
C1317      C1322   1.405       .  A
C1317      H1324   1.081       .  S
C1318      C1319   1.425       .  A
C1319      C1320   1.401       .  A
C1319      N1326   1.430       .  S
C1320      C1321   1.396       .  A
C1320      H1325   1.084       .  S
C1321      C1322   1.412       .  A
C1322      N1323   1.438       .  S
N1323      H1327   1.046       .  S
N1323      H1328   1.043       .  S
N1326      H1329   1.046       .  S
N1326      H1330   1.046   1_556  S
C1331      C1332   1.421       .  A
C1331      C1336   1.408       .  A
C1331      H1338   1.080       .  S
C1332      C1333   1.424   1_556  A
C1333      C1334   1.395       .  A
C1333      N1340   1.433       .  S
C1334      C1335   1.398   1_554  A
C1334      H1339   1.085       .  S
C1335      C1336   1.412       .  A
C1336      N1337   1.438       .  S
N1337      H1341   1.046       .  S
N1337      H1342   1.042       .  S
N1340      H1343   1.046       .  S
N1340      H1344   1.046       .  S
C1345      C1346   1.416       .  A
C1345      C1350   1.399       .  A
C1345      H1352   1.081   1_455  S
C1346      C1347   1.435       .  A
C1347      C1348   1.407       .  A
C1347      N1354   1.432       .  S
C1348      C1349   1.394       .  A
C1348      H1353   1.084       .  S
C1349      C1350   1.408       .  A
C1350      N1351   1.433       .  S
N1351      H1355   1.046       .  S
N1351      H1356   1.044       .  S
N1354      H1357   1.046       .  S
N1354      H1358   1.046       .  S
C1359      C1360   1.418       .  A
C1359      C1364   1.403       .  A
C1359      H1366   1.080       .  S
C1360      C1361   1.424       .  A
C1361      C1362   1.402       .  A
C1361      N1368   1.432       .  S
C1362      C1363   1.398       .  A
C1362      H1367   1.084       .  S
C1363      C1364   1.410       .  A
C1364      N1365   1.432       .  S
N1365      H1369   1.045       .  S
N1365      H1370   1.045       .  S
N1368      H1371   1.046       .  S
N1368      H1372   1.046       .  S
C1373      C1374   1.397       .  A
C1373      C1378   1.402       .  A
C1373      H1380   1.084       .  S
C1374      C1375   1.405       .  A
C1375      C1376   1.408       .  A
C1375      N1382   1.437       .  S
C1376      C1377   1.417       .  A
C1376      H1381   1.079       .  S
C1377      C1378   1.424       .  A
C1378      N1379   1.432       .  S
N1379      H1383   1.045       .  S
N1379      H1384   1.046   1_655  S
N1382      H1385   1.045       .  S
N1382      H1386   1.046       .  S
C1387      C1388   1.415   1_455  A
C1387      C1392   1.397       .  A
C1387      H1394   1.080       .  S
C1388      C1389   1.434       .  A
C1389      C1390   1.412       .  A
C1389      N1396   1.432       .  S
C1390      C1391   1.398       .  A
C1390      H1395   1.084       .  S
C1391      C1392   1.410   1_655  A
C1392      N1393   1.433       .  S
N1393      H1397   1.046       .  S
N1393      H1398   1.043       .  S
N1396      H1399   1.046       .  S
N1396      H1400   1.046       .  S
C1401      C1402   1.420       .  A
C1401      C1406   1.399       .  A
C1401      H1408   1.078       .  S
C1402      C1403   1.425       .  A
C1403      C1404   1.411       .  A
C1403      N1410   1.432       .  S
C1404      C1405   1.402       .  A
C1404      H1409   1.084       .  S
C1405      C1406   1.412       .  A
C1406      N1407   1.441       .  S
N1407      H1411   1.046       .  S
N1407      H1412   1.043       .  S
N1410      H1413   1.046       .  S
N1410      H1414   1.046       .  S
C1415      C1416   1.393       .  A
C1415      C1420   1.403       .  A
C1415      H1422   1.084       .  S
C1416      C1417   1.408       .  A
C1417      C1418   1.402       .  A
C1417      N1424   1.433       .  S
C1418      C1419   1.418       .  A
C1418      H1423   1.079       .  S
C1419      C1420   1.429       .  A
C1420      N1421   1.431       .  S
N1421      H1425   1.046       .  S
N1421      H1426   1.046       .  S
N1424      H1427   1.046       .  S
N1424      H1428   1.045       .  S
C1429      C1430   1.421   1_565  A
C1429      C1434   1.404       .  A
C1429      H1436   1.078       .  S
C1430      C1431   1.430       .  A
C1431      C1432   1.401       .  A
C1431      N1438   1.440       .  S
C1432      C1433   1.399       .  A
C1432      H1437   1.084       .  S
C1433      C1434   1.409   1_545  A
C1434      N1435   1.439       .  S
N1435      H1439   1.046       .  S
N1435      H1440   1.042       .  S
N1438      H1441   1.041       .  S
N1438      H1442   1.046       .  S
C1443      C1444   1.400       .  A
C1443      C1448   1.408       .  A
C1443      H1450   1.084       .  S
C1444      C1445   1.410       .  A
C1445      C1446   1.397       .  A
C1445      N1452   1.438       .  S
C1446      C1447   1.417       .  A
C1446      H1451   1.083       .  S
C1447      C1448   1.428       .  A
C1448      N1449   1.433       .  S
N1449      H1453   1.046       .  S
N1449      H1454   1.045       .  S
N1452      H1455   1.044       .  S
N1452      H1456   1.046   1_565  S
C1457      C1458   1.422       .  A
C1457      C1462   1.409       .  A
C1457      H1464   1.083       .  S
C1458      C1459   1.444       .  A
C1459      C1460   1.395       .  A
C1459      N1466   1.440       .  S
C1460      C1461   1.396       .  A
C1460      H1465   1.085       .  S
C1461      C1462   1.413       .  A
C1462      N1463   1.437       .  S
N1463      H1467   1.045       .  S
N1463      H1468   1.040       .  S
N1466      H1469   1.033       .  S
N1466      H1470   1.045       .  S
C1471      C1472   1.420       .  A
C1471      C1476   1.403       .  A
C1471      H1478   1.083       .  S
C1472      C1473   1.433       .  A
C1473      C1474   1.402       .  A
C1473      N1480   1.432       .  S
C1474      C1475   1.396       .  A
C1474      H1479   1.085       .  S
C1475      C1476   1.408       .  A
C1476      N1477   1.438       .  S
N1477      H1481   1.046       .  S
N1477      H1482   1.043       .  S
N1480      H1483   1.046       .  S
N1480      H1484   1.046       .  S
C1485      C1486   1.424       .  A
C1485      C1490   1.414       .  A
C1485      H1492   1.079       .  S
C1486      C1487   1.424   1_565  A
C1487      C1488   1.398       .  A
C1487      N1494   1.427       .  S
C1488      C1489   1.396       .  A
C1488      H1493   1.085       .  S
C1489      C1490   1.403   1_545  A
C1490      N1491   1.437       .  S
N1491      H1495   1.046       .  S
N1491      H1496   1.045       .  S
N1494      H1497   1.046       .  S
N1494      H1498   1.045       .  S
C1499      C1500   1.401       .  A
C1499      C1504   1.410       .  A
C1499      H1506   1.084       .  S
C1500      C1501   1.409       .  A
C1501      C1502   1.396       .  A
C1501      N1508   1.439       .  S
C1502      C1503   1.416       .  A
C1502      H1507   1.079       .  S
C1503      C1504   1.424       .  A
C1504      N1505   1.431       .  S
N1505      H1509   1.045       .  S
N1505      H1510   1.045       .  S
N1508      H1511   1.044       .  S
N1508      H1512   1.046       .  S
C1513      C1514   1.418       .  A
C1513      C1518   1.403       .  A
C1513      H1520   1.076   1_455  S
C1514      C1515   1.431       .  A
C1515      C1516   1.402       .  A
C1515      N1522   1.430       .  S
C1516      C1517   1.392       .  A
C1516      H1521   1.084       .  S
C1517      C1518   1.407       .  A
C1518      N1519   1.433       .  S
N1519      H1523   1.045       .  S
N1519      H1524   1.046       .  S
N1522      H1525   1.046       .  S
N1522      H1526   1.046       .  S
C1527      C1528   1.418       .  A
C1527      C1532   1.393       .  A
C1527      H1534   1.081       .  S
C1528      C1529   1.428       .  A
C1529      C1530   1.412       .  A
C1529      N1536   1.433       .  S
C1530      C1531   1.398       .  A
C1530      H1535   1.083       .  S
C1531      C1532   1.408       .  A
C1532      N1533   1.434       .  S
N1533      H1537   1.042       .  S
N1533      H1538   1.046       .  S
N1536      H1539   1.045       .  S
N1536      H1540   1.046       .  S
C1541      C1542   1.400   1_455  A
C1541      C1546   1.401       .  A
C1541      H1548   1.084       .  S
C1542      C1543   1.417       .  A
C1543      C1544   1.407       .  A
C1543      N1550   1.438       .  S
C1544      C1545   1.417       .  A
C1544      H1549   1.083       .  S
C1545      C1546   1.434   1_655  A
C1546      N1547   1.440       .  S
N1547      H1551   1.046       .  S
N1547      H1552   1.041       .  S
N1550      H1553   1.038       .  S
N1550      H1554   1.046       .  S
C1555      C1556   1.422       .  A
C1555      C1560   1.398       .  A
C1555      H1562   1.084       .  S
C1556      C1557   1.437       .  A
C1557      C1558   1.415   1_655  A
C1557      N1564   1.436   1_655  S
C1558      C1559   1.399   1_455  A
C1558      H1563   1.084       .  S
C1559      C1560   1.407       .  A
C1560      N1561   1.440       .  S
N1561      H1565   1.046       .  S
N1561      H1566   1.043       .  S
N1564      H1567   1.042       .  S
N1564      H1568   1.046       .  S
C1569      C1570   1.402       .  A
C1569      C1574   1.398       .  A
C1569      H1576   1.084       .  S
C1570      C1571   1.415       .  A
C1571      C1572   1.409       .  A
C1571      N1578   1.439       .  S
C1572      C1573   1.421       .  A
C1572      H1577   1.079       .  S
C1573      C1574   1.422       .  A
C1574      N1575   1.433   1_554  S
N1575      H1579   1.046   1_556  S
N1575      H1580   1.046       .  S
N1578      H1581   1.041       .  S
N1578      H1582   1.046       .  S
C1583      C1584   1.397       .  A
C1583      C1588   1.404       .  A
C1583      H1590   1.084       .  S
C1584      C1585   1.407       .  A
C1585      C1586   1.399       .  A
C1585      N1592   1.433       .  S
C1586      C1587   1.418       .  A
C1586      H1591   1.080       .  S
C1587      C1588   1.424       .  A
C1588      N1589   1.432       .  S
N1589      H1593   1.046       .  S
N1589      H1594   1.045       .  S
N1592      H1595   1.045       .  S
N1592      H1596   1.045       .  S
C1597      C1598   1.418       .  A
C1597      C1602   1.406       .  A
C1597      H1604   1.080       .  S
C1598      C1599   1.423       .  A
C1599      C1600   1.403       .  A
C1599      N1606   1.432       .  S
C1600      C1601   1.397       .  A
C1600      H1605   1.084       .  S
C1601      C1602   1.405       .  A
C1602      N1603   1.438       .  S
N1603      H1607   1.046       .  S
N1603      H1608   1.045       .  S
N1606      H1609   1.046   1_556  S
N1606      H1610   1.045       .  S
C1611      C1612   1.421       .  A
C1611      C1616   1.408       .  A
C1611      H1618   1.079       .  S
C1612      C1613   1.424   1_556  A
C1613      C1614   1.399       .  A
C1613      N1620   1.433       .  S
C1614      C1615   1.400   1_554  A
C1614      H1619   1.084       .  S
C1615      C1616   1.414       .  A
C1616      N1617   1.438       .  S
N1617      H1621   1.045       .  S
N1617      H1622   1.042       .  S
N1620      H1623   1.046       .  S
N1620      H1624   1.046       .  S
C1625      C1626   1.398       .  A
C1625      C1630   1.395       .  A
C1625      H1632   1.084       .  S
C1626      C1627   1.412       .  A
C1627      C1628   1.408       .  A
C1627      N1634   1.431       .  S
C1628      C1629   1.424       .  A
C1628      H1633   1.084       .  S
C1629      C1630   1.432       .  A
C1630      N1631   1.431       .  S
N1631      H1635   1.046       .  S
N1631      H1636   1.046       .  S
N1634      H1637   1.044       .  S
N1634      H1638   1.045       .  S
C1639      C1640   1.419       .  A
C1639      C1644   1.407       .  A
C1639      H1646   1.079       .  S
C1640      C1641   1.423       .  A
C1641      C1642   1.394       .  A
C1641      N1648   1.432       .  S
C1642      C1643   1.401       .  A
C1642      H1647   1.083       .  S
C1643      C1644   1.414       .  A
C1644      N1645   1.431       .  S
N1645      H1649   1.043       .  S
N1645      H1650   1.045       .  S
N1648      H1651   1.046       .  S
N1648      H1652   1.045       .  S
C1653      C1654   1.422       .  A
C1653      C1658   1.410       .  A
C1653      H1660   1.084       .  S
C1654      C1655   1.430   1_556  A
C1655      C1656   1.396       .  A
C1655      N1662   1.430       .  S
C1656      C1657   1.399   1_554  A
C1656      H1661   1.085       .  S
C1657      C1658   1.417       .  A
C1658      N1659   1.437       .  S
N1659      H1663   1.046       .  S
N1659      H1664   1.038       .  S
N1662      H1665   1.046       .  S
N1662      H1666   1.046       .  S
C1667      C1668   1.416   1_554  A
C1667      C1672   1.405       .  A
C1667      H1674   1.083       .  S
C1668      C1669   1.431       .  A
C1669      C1670   1.409       .  A
C1669      N1676   1.431       .  S
C1670      C1671   1.397       .  A
C1670      H1675   1.084       .  S
C1671      C1672   1.410   1_556  A
C1672      N1673   1.438       .  S
N1673      H1677   1.046       .  S
N1673      H1678   1.045       .  S
N1676      H1679   1.046       .  S
N1676      H1680   1.045       .  S
