geometry optimzed in LAMMPS
_audit_creation_date              2020-11-30 
_audit_creation_method            'lammps2cif' 
_symmetry_space_group_name_H-M    'P1' 
_symmetry_Int_Tables_number       1 
_symmetry_cell_setting            triclinic 
loop_ 
_symmetry_equiv_pos_as_xyz 
  x,y,z 
_cell_length_a                    22.909518716185673 
_cell_length_b                    31.882523543538845 
_cell_length_c                    25.258599231682968 
_cell_angle_alpha                 90.29150266636626 
_cell_angle_beta                  84.87186647118921 
_cell_angle_gamma                 89.76249922777377 
loop_ 
_atom_site_label 
_atom_site_type_symbol 
_atom_site_fract_x 
_atom_site_fract_y 
_atom_site_fract_z 
_atom_site_charge 
C1          C  0.10445576  0.29533581  0.22260108     0.03250
C2          C  0.06739642  0.32935807  0.23706853    -0.12900
C3          C  0.08989159  0.36861246  0.24839328     0.00750
C4          C  0.15025314  0.37295056  0.25389903    -0.11430
C5          C  0.18788477  0.33811693  0.24332103     0.03240
C6          C  0.16475635  0.30113235  0.22254797    -0.10850
H7          H  0.02031687  0.32569920  0.23962067     0.08830
H8          H  0.16711374  0.40249196  0.26721408     0.06360
H9          H  0.19385609  0.27566903  0.20910810     0.06210
C10         C  0.10036185  0.62574529  0.23861951     0.03250
C11         C  0.16027667  0.61931509  0.24002271    -0.12900
C12         C  0.18298519  0.58114634  0.25783404     0.00750
C13         C  0.14463438  0.54653441  0.26456485    -0.11430
C14         C  0.08485800  0.55142256  0.25565694     0.03240
C15         C  0.06300862  0.59120636  0.24447089    -0.10850
H16         H  0.18911357  0.64496666  0.22807794     0.08830
H17         H  0.16072799  0.51632567  0.27636935     0.06360
H18         H  0.01662139  0.59532034  0.24058760     0.06210
C19         C  0.33060364  0.62398084  0.28274134     0.03250
C20         C  0.27042048  0.61855751  0.28564918    -0.12900
C21         C  0.24579557  0.58036865  0.27064600     0.00750
C22         C  0.28312018  0.54479568  0.26402382    -0.11430
C23         C  0.34392212  0.54917971  0.26921457     0.03240
C24         C  0.36740449  0.58914602  0.27605050    -0.10850
H25         H  0.24340446  0.64597330  0.29433575     0.08830
H26         H  0.26578036  0.51453803  0.25395340     0.06360
H27         H  0.41442891  0.59335068  0.27442573     0.06210
O28         O  0.40629239  0.50081410  0.21908262    -0.74310
O29         O  0.02884134  0.41797134  0.21049379    -0.74340
O30         O  0.40951554  0.41596882  0.21561072    -0.74390
O31         O  0.02543538  0.50290549  0.21372665    -0.74440
O32         O  0.02355002  0.50093294  0.30219127    -0.74380
O33         O  0.40774522  0.41377079  0.30404396    -0.74350
O34         O  0.02697900  0.41636214  0.29899087    -0.74330
O35         O  0.40411221  0.49910382  0.30757863    -0.74390
Ni36       Ni  0.46773176  0.45945494  0.21157147     1.25410
Ni37       Ni  0.46530604  0.45748563  0.30636728     1.25360
C38         C  0.38535109  0.51371449  0.26499934     0.87870
C39         C  0.04803582  0.40368093  0.25305720     0.87800
C40         C  0.38965695  0.40056806  0.26032790     0.87830
C41         C  0.04363737  0.51605584  0.25738020     0.88000
C42         C  0.32993077  0.29119233  0.27931905     0.03250
C43         C  0.27056574  0.29816064  0.27539690    -0.12900
C44         C  0.24960284  0.33674272  0.25784358     0.00750
C45         C  0.28843321  0.37108578  0.25268581    -0.11430
C46         C  0.34790091  0.36540248  0.26184226     0.03240
C47         C  0.36865890  0.32508689  0.27227950    -0.10850
H48         H  0.24081927  0.27218960  0.28359975     0.08830
H49         H  0.27305066  0.40157456  0.24113147     0.06280
H50         H  0.41527261  0.32012070  0.27339885     0.06210
C51         C  0.46723958  0.14282181  0.25248454    -0.02370
C52         C  0.45671705  0.77590659  0.24246690    -0.02370
C53         C  0.49817383  0.04981886  0.45085984     0.03250
C54         C  0.49196008  0.07100537  0.49972305    -0.12900
C55         C  0.47833664  0.04903540  0.04717186     0.00750
C56         C  0.47381791  0.00515577  0.04510238    -0.11430
C57         C  0.48545557  0.98221071  0.49722883     0.03240
C58         C  0.49658661  0.00572788  0.45005809    -0.10850
H59         H  0.49392109  0.10483629  0.50053602     0.08830
H60         H  0.45943131  0.98983657  0.08172665     0.06360
H61         H  0.50127009  0.99089802  0.41151742     0.06210
C62         C  0.45932882  0.86870417  0.04312508     0.03250
C63         C  0.46989852  0.91177449  0.04388882    -0.12900
C64         C  0.48117006  0.93468279  0.49646164     0.00750
C65         C  0.48860187  0.91114472  0.44863406    -0.11430
C66         C  0.47578392  0.86779470  0.44689081     0.03240
C67         C  0.45786577  0.84751859  0.99482851    -0.10850
H68         H  0.47117226  0.92602768  0.08250241     0.08830
H69         H  0.50480651  0.92590723  0.41214741     0.06360
H70         H  0.44528661  0.81484559  0.99522749     0.06210
C71         C  0.46108017  0.86684641  0.35029550    -0.20190
C72         C  0.47771193  0.84498508  0.39446112    -0.06760
C73         C  0.49288364  0.80221324  0.38733742     0.14110
C74         C  0.48218131  0.78195285  0.33975290    -0.20240
C75         C  0.46760010  0.80354137  0.29345536    -0.06760
C76         C  0.46033011  0.84849229  0.29960201     0.14100
C77         C  0.95066032  0.87969341  0.25623381    -0.23590
H78         H  0.44778822  0.89932689  0.35541084     0.15390
H79         H  0.48641148  0.74810788  0.33883872     0.15420
C80         C  0.52279717  0.77684314  0.42741258    -0.23540
H81         H  0.94889538  0.91265278  0.27082226     0.05630
H82         H  0.40801907  0.87478951  0.24042468     0.08860
H83         H  0.98781289  0.87935026  0.22523745     0.08860
H84         H  0.49233167  0.75274467  0.44528282     0.08840
H85         H  0.53955737  0.79640479  0.45902671     0.08840
H86         H  0.56174141  0.76073547  0.40718380     0.05620
C87         C  0.00674357  0.81640243  0.16563340    -0.20190
C88         C  0.45283556  0.80430058  0.19314000    -0.06760
C89         C  0.39997437  0.81738122  0.17139855     0.14110
C90         C  0.40333305  0.83637493  0.12110083    -0.20240
C91         C  0.45731848  0.84534624  0.09339148    -0.06760
C92         C  0.00954034  0.83583720  0.11613057     0.14100
C93         C  0.06861158  0.84557497  0.08767938    -0.23590
H94         H  0.04752275  0.80984623  0.18266087     0.15390
H95         H  0.36346477  0.84613426  0.10441259     0.15420
C96         C  0.33999105  0.81692871  0.20158425    -0.23540
H97         H  0.10514265  0.83496653  0.11052629     0.05630
H98         H  0.07310479  0.87989605  0.08164871     0.08860
H99         H  0.07318235  0.82941548  0.04847930     0.08860
H100        H  0.31877816  0.84812461  0.19853602     0.08840
H101        H  0.34157674  0.81166333  0.24458490     0.08840
H102        H  0.31188549  0.79312976  0.18432373     0.05620
C103        C  0.44759203  0.06373721  0.37080262    -0.20190
C104        C  0.49436369  0.07329969  0.40046608    -0.06760
C105        C  0.03255489  0.10594863  0.38320166     0.14110
C106        C  0.02216468  0.12842052  0.33710385    -0.20240
C107        C  0.47738636  0.11749109  0.30422129    -0.06760
C108        C  0.43773256  0.08519841  0.32410112     0.14100
C109        C  0.38346512  0.07283801  0.29835143    -0.23590
H110        H  0.41717977  0.03957844  0.38543215     0.15390
H111        H  0.04766337  0.15623694  0.32924537     0.15420
C112        C  0.08539211  0.11664650  0.41212718    -0.23540
H113        H  0.36036614  0.04607403  0.31877747     0.05630
H114        H  0.39426881  0.06239948  0.25688744     0.08860
H115        H  0.35181466  0.09913640  0.30145506     0.08860
H116        H  0.11249343  0.08806342  0.41602924     0.08840
H117        H  0.07205597  0.12973561  0.45205422     0.08840
H118        H  0.11334993  0.14043824  0.39033631     0.05620
C119        C  0.44337515  0.13113542  0.15599878    -0.20190
C120        C  0.46608863  0.11360810  0.20161482    -0.06760
C121        C  0.99351796  0.07262540  0.19336663     0.14110
C122        C  0.99554668  0.05344490  0.14286805    -0.20240
C123        C  0.47033115  0.07118120  0.09976661    -0.06760
C124        C  0.44068589  0.10967003  0.10779961     0.14100
C125        C  0.40292523  0.12850467  0.06787218    -0.23590
H126        H  0.42358598  0.16156475  0.15766675     0.15390
H127        H  0.01893898  0.02391337  0.13668724     0.15420
C128        C  0.02324958  0.04543000  0.23250571    -0.23540
H129        H  0.35892701  0.13608177  0.08763594     0.05630
H130        H  0.39511363  0.10680512  0.03492010     0.08860
H131        H  0.42316815  0.15784835  0.05159647     0.08860
H132        H  0.03148645  0.05835032  0.27111113     0.08840
H133        H  0.06758068  0.03625725  0.21458101     0.08840
H134        H  0.99744471  0.01628555  0.23988887     0.05620
C135        C  0.41962065  0.19762750  0.31516317    -0.20190
C136        C  0.41086582  0.16928642  0.27271476    -0.06760
C137        C  0.35856822  0.17607136  0.24672531     0.14110
C138        C  0.33203382  0.21602036  0.25072122    -0.20240
C139        C  0.35145995  0.24747779  0.28420753    -0.06760
C140        C  0.39089340  0.23627411  0.32112442     0.14100
C141        C  0.40309694  0.26462185  0.36689234    -0.23590
H142        H  0.45485618  0.19259995  0.33998880     0.15390
H143        H  0.29682613  0.22294901  0.22608968     0.15420
C144        C  0.32696446  0.14364716  0.21640933    -0.23540
H145        H  0.36116857  0.27356249  0.38967243     0.05630
H146        H  0.43081939  0.24875260  0.39471963     0.08860
H147        H  0.42663601  0.29323444  0.35279283     0.08860
H148        H  0.28256780  0.13877077  0.23684525     0.08840
H149        H  0.34884226  0.11287521  0.21333358     0.08840
H150        H  0.32140268  0.15504617  0.17573806     0.05620
C151        C  0.35793148  0.69424925  0.31577079    -0.20190
C152        C  0.35354949  0.66659032  0.27326132    -0.06760
C153        C  0.35995211  0.68249566  0.22116248     0.14110
C154        C  0.38168801  0.72302595  0.21285638    -0.20240
C155        C  0.40117415  0.74719525  0.25460355    -0.06760
C156        C  0.37620644  0.73582507  0.30647342     0.14100
C157        C  0.35526634  0.76737675  0.34876092    -0.23590
H158        H  0.34263779  0.68443875  0.35563372     0.15390
H159        H  0.38579502  0.73487229  0.17303113     0.15420
C160        C  0.34417305  0.65674962  0.17425144    -0.23540
H161        H  0.30724876  0.76385636  0.35817315     0.05630
H162        H  0.36202527  0.80018010  0.33566028     0.08860
H163        H  0.37660418  0.76164722  0.38583553     0.08860
H164        H  0.29718239  0.64802454  0.17960106     0.08840
H165        H  0.37145095  0.62785239  0.17064418     0.08840
H166        H  0.35135684  0.67428624  0.13637211     0.05620
C167        C  0.05788032  0.74108868  0.25751886    -0.20190
C168        C  0.00883875  0.74318698  0.22742344    -0.06760
C169        C  0.00978006  0.71235507  0.18530831     0.14110
C170        C  0.03967577  0.67439394  0.19061358    -0.20240
C171        C  0.07633136  0.66846403  0.23105235    -0.06760
C172        C  0.08870077  0.70340930  0.26294489     0.14100
C173        C  0.13135157  0.70111721  0.30496178    -0.23590
H174        H  0.07064055  0.76812206  0.27958936     0.15390
H175        H  0.03578865  0.64946789  0.16173404     0.15420
C176        C  0.48770210  0.71821390  0.13111198    -0.23540
H177        H  0.12905265  0.72957481  0.33061199     0.05630
H178        H  0.17668454  0.69916381  0.28598024     0.08860
H179        H  0.12147892  0.67366096  0.33106308     0.08860
H180        H  0.46722977  0.74859119  0.12423812     0.08840
H181        H  0.45627663  0.69300658  0.12335186     0.08840
H182        H  0.52533550  0.71544524  0.10035304     0.05620
C183        C  0.99153978  0.21352896  0.20630711    -0.20190
C184        C  0.01312572  0.17820439  0.23324617    -0.06760
C185        C  0.07520425  0.17814358  0.23616983     0.14110
C186        C  0.10567988  0.21650726  0.23197780    -0.20240
C187        C  0.07928634  0.25304311  0.21368304    -0.06760
C188        C  0.02487407  0.24877257  0.19296009     0.14100
C189        C  0.00045677  0.28048301  0.15645952    -0.23590
H190        H  0.44698056  0.21552322  0.19649950     0.15390
H191        H  0.15012789  0.21744269  0.24331528     0.15420
C192        C  0.11194765  0.13951456  0.24113272    -0.23540
H193        H  0.53227497  0.30554618  0.14443684     0.05630
H194        H  0.98981210  0.26445048  0.11940819     0.08860
H195        H  0.95966419  0.29473450  0.17591685     0.08860
H196        H  0.14511234  0.13725129  0.20637674     0.08840
H197        H  0.08565808  0.11109329  0.24138435     0.08840
H198        H  0.13531224  0.14093924  0.27777369     0.05620
C199        C  0.10445597  0.29533582  0.72260269     0.03250
C200        C  0.06739666  0.32935817  0.73706985    -0.12900
C201        C  0.08989178  0.36861247  0.74839503     0.00750
C202        C  0.15025317  0.37295034  0.75390183    -0.11430
C203        C  0.18788473  0.33811657  0.74332435     0.03240
C204        C  0.16475655  0.30113215  0.72255073    -0.10850
H205        H  0.02031711  0.32569947  0.73962160     0.08830
H206        H  0.16711369  0.40249167  0.76721719     0.06360
H207        H  0.19385648  0.27566886  0.70911121     0.06210
C208        C  0.10036129  0.62574530  0.73861530     0.03250
C209        C  0.16027613  0.61931488  0.74001855    -0.12900
C210        C  0.18298436  0.58114605  0.75783003     0.00750
C211        C  0.14463331  0.54653433  0.76456111    -0.11430
C212        C  0.08485697  0.55142263  0.75565325     0.03240
C213        C  0.06300783  0.59120646  0.74446685    -0.10850
H214        H  0.18911325  0.64496637  0.72807396     0.08830
H215        H  0.16072666  0.51632563  0.77636603     0.06360
H216        H  0.01662056  0.59532058  0.74058377     0.06210
C217        C  0.33060245  0.62397990  0.78273969     0.03250
C218        C  0.27041932  0.61855680  0.78564635    -0.12900
C219        C  0.24579455  0.58036809  0.77064257     0.00750
C220        C  0.28311907  0.54479501  0.76402079    -0.11430
C221        C  0.34392084  0.54917882  0.76921272     0.03240
C222        C  0.36740319  0.58914502  0.77604941    -0.10850
H223        H  0.24340334  0.64597267  0.79433251     0.08830
H224        H  0.26577930  0.51453744  0.75394993     0.06360
H225        H  0.41442761  0.59334956  0.77442551     0.06210
O226        O  0.40629087  0.50081247  0.71908165    -0.74310
O227        O  0.02884091  0.41797047  0.71049460    -0.74340
O228        O  0.40951509  0.41596721  0.71561235    -0.74390
O229        O  0.02543393  0.50290471  0.71372477    -0.74440
O230        O  0.02354941  0.50093381  0.80218941    -0.74380
O231        O  0.40774559  0.41377084  0.80404562    -0.74350
O232        O  0.02697942  0.41636297  0.79899168    -0.74330
O233        O  0.40411164  0.49910390  0.80757766    -0.74390
Ni234      Ni  0.46773078  0.45945366  0.71157132     1.25410
Ni235      Ni  0.46530599  0.45748614  0.80636715     1.25360
C236        C  0.38534988  0.51371361  0.76499812     0.87870
C237        C  0.04803596  0.40368099  0.75305827     0.87800
C238        C  0.38965700  0.40056722  0.76033012     0.87830
C239        C  0.04363619  0.51605599  0.75737777     0.88000
C240        C  0.32993029  0.29119176  0.77932389     0.03250
C241        C  0.27056524  0.29816015  0.77540136    -0.12900
C242        C  0.24960259  0.33674219  0.75784750     0.00750
C243        C  0.28843317  0.37108506  0.75268924    -0.11430
C244        C  0.34790079  0.36540172  0.76184578     0.03240
C245        C  0.36865857  0.32508622  0.77228380    -0.10850
H246        H  0.24081855  0.27218922  0.78360415     0.08830
H247        H  0.27305086  0.40157373  0.74113423     0.06280
H248        H  0.41527230  0.32011999  0.77340295     0.06210
C249        C  0.46724021  0.14282192  0.75248670    -0.02370
C250        C  0.45671548  0.77590614  0.74246576    -0.02370
C251        C  0.49818272  0.04981738  0.95085904     0.03250
C252        C  0.49196744  0.07100377  0.99972224    -0.12900
C253        C  0.47833096  0.04903706  0.54717302     0.00750
C254        C  0.47381224  0.00515742  0.54510383    -0.11430
C255        C  0.48546364  0.98220914  0.99722758     0.03240
C256        C  0.49659671  0.00572638  0.95005711    -0.10850
H257        H  0.49392814  0.10483471  0.00053531     0.08830
H258        H  0.45942795  0.98983835  0.58172868     0.06360
H259        H  0.50128250  0.99089665  0.91151641     0.06210
C260        C  0.45932158  0.86870531  0.54312561     0.03250
C261        C  0.46988859  0.91177594  0.54388984    -0.12900
C262        C  0.48117767  0.93468126  0.99646033     0.00750
C263        C  0.48860578  0.91114323  0.94863257    -0.11430
C264        C  0.47578678  0.86779334  0.94688996     0.03240
C265        C  0.45786157  0.84751966  0.49482881    -0.10850
H266        H  0.47115880  0.92602909  0.58250377     0.08830
H267        H  0.50480797  0.92590570  0.91214521     0.06360
H268        H  0.44528378  0.81484640  0.49522736     0.06210
C269        C  0.46107883  0.86684511  0.85029554    -0.20190
C270        C  0.47771227  0.84498366  0.89446042    -0.06760
C271        C  0.49288384  0.80221183  0.88733610     0.14110
C272        C  0.48218079  0.78195175  0.83975152    -0.20240
C273        C  0.46759867  0.80354056  0.79345449    -0.06760
C274        C  0.46032774  0.84849136  0.79960194     0.14100
C275        C  0.95065556  0.87969269  0.75623461    -0.23590
H276        H  0.44778647  0.89932546  0.85541159     0.15390
H277        H  0.48641126  0.74810680  0.83883681     0.15420
C278        C  0.52279793  0.77684141  0.92741058    -0.23540
H279        H  0.94888966  0.91265191  0.77082362     0.05630
H280        H  0.40801404  0.87478812  0.74042632     0.08860
H281        H  0.98780737  0.87935060  0.72523750     0.08860
H282        H  0.49233245  0.75274306  0.94528115     0.08840
H283        H  0.53955903  0.79640279  0.95902450     0.08840
H284        H  0.56174166  0.76073357  0.90718114     0.05620
C285        C  0.00673974  0.81640359  0.66563265    -0.20190
C286        C  0.45283236  0.80430056  0.69313950    -0.06760
C287        C  0.39997037  0.81738056  0.67139885     0.14110
C288        C  0.40332774  0.83637471  0.62110145    -0.20240
C289        C  0.45731255  0.84534716  0.59339176    -0.06760
C290        C  0.00953522  0.83583901  0.61613028     0.14100
C291        C  0.06860583  0.84557847  0.58767898    -0.23590
H292        H  0.04751936  0.80984784  0.68265962     0.15390
H293        H  0.36345889  0.84613345  0.60441373     0.15420
C294        C  0.33998736  0.81692687  0.70158508    -0.23540
H295        H  0.10513757  0.83497071  0.61052550     0.05630
H296        H  0.07309730  0.87989973  0.58164896     0.08860
H297        H  0.07317716  0.82941948  0.54847859     0.08860
H298        H  0.31877334  0.84812243  0.69853737     0.08840
H299        H  0.34157373  0.81166134  0.74458560     0.08840
H300        H  0.31188240  0.79312751  0.68432460     0.05620
C301        C  0.44759824  0.06373577  0.87080349    -0.20190
C302        C  0.49437100  0.07329827  0.90046560    -0.06760
C303        C  0.03256063  0.10594791  0.88320103     0.14110
C304        C  0.02216808  0.12842042  0.83710431    -0.20240
C305        C  0.47738892  0.11749094  0.80422281    -0.06760
C306        C  0.43773634  0.08519769  0.82410310     0.14100
C307        C  0.38346791  0.07283730  0.79835499    -0.23590
H308        H  0.41718698  0.03957649  0.88543334     0.15390
H309        H  0.04766591  0.15623725  0.82924581     0.15420
C310        C  0.08539870  0.11664594  0.91212529    -0.23540
H311        H  0.36036985  0.04607307  0.81878130     0.05630
H312        H  0.39427027  0.06239915  0.75689067     0.08860
H313        H  0.35181725  0.09913557  0.80145989     0.08860
H314        H  0.11250125  0.08806318  0.91602531     0.08840
H315        H  0.07206356  0.12973378  0.95205320     0.08840
H316        H  0.11335493  0.14043867  0.89033464     0.05620
C317        C  0.44337297  0.13113640  0.65600157    -0.20190
C318        C  0.46608794  0.11360868  0.70161670    -0.06760
C319        C  0.99351722  0.07262614  0.69336720     0.14110
C320        C  0.99554474  0.05344624  0.64286835    -0.20240
C321        C  0.47032769  0.07118278  0.59976793    -0.06760
C322        C  0.44068238  0.10967148  0.60780222     0.14100
C323        C  0.40292036  0.12850643  0.56787610    -0.23590
H324        H  0.42358356  0.16156567  0.65767052     0.15390
H325        H  0.01893722  0.02391487  0.63668652     0.15420
C326        C  0.02324997  0.04543029  0.73250507    -0.23540
H327        H  0.35892261  0.13608334  0.58764101     0.05630
H328        H  0.39510779  0.10680718  0.53492400     0.08860
H329        H  0.42316275  0.15785027  0.55160035     0.08860
H330        H  0.03148777  0.05835016  0.77111049     0.08840
H331        H  0.06758074  0.03625777  0.71457933     0.08840
H332        H  0.99744533  0.01628573  0.73988819     0.05620
C333        C  0.41962220  0.19762732  0.81516645    -0.20190
C334        C  0.41086661  0.16928624  0.77271827    -0.06760
C335        C  0.35856798  0.17607078  0.74673021     0.14110
C336        C  0.33203300  0.21601956  0.75072676    -0.20240
C337        C  0.35145960  0.24747717  0.78421255    -0.06760
C338        C  0.39089433  0.23627371  0.82112849     0.14100
C339        C  0.40309845  0.26462137  0.86689630    -0.23590
H340        H  0.45485859  0.19259993  0.83999120     0.15390
H341        H  0.29682454  0.22294793  0.72609598     0.15420
C342        C  0.32696369  0.14364632  0.71641509    -0.23540
H343        H  0.36117037  0.27356156  0.88967721     0.05630
H344        H  0.43082187  0.24875224  0.89472289     0.08860
H345        H  0.42663674  0.29323424  0.85279667     0.08860
H346        H  0.28256768  0.13876951  0.73685216     0.08840
H347        H  0.34884200  0.11287458  0.71333859     0.08840
H348        H  0.32140033  0.15504533  0.67574411     0.05620
C349        C  0.35793043  0.69424808  0.81576948    -0.20190
C350        C  0.35354865  0.66658924  0.77325991    -0.06760
C351        C  0.35995176  0.68249456  0.72116108     0.14110
C352        C  0.38168755  0.72302484  0.71285519    -0.20240
C353        C  0.40117336  0.74719413  0.75460250    -0.06760
C354        C  0.37620552  0.73582389  0.80647233     0.14100
C355        C  0.35526571  0.76737539  0.84876015    -0.23590
H356        H  0.34263652  0.68443752  0.85563233     0.15390
H357        H  0.38579455  0.73487128  0.67303000     0.15420
C358        C  0.34417334  0.65674848  0.67424982    -0.23540
H359        H  0.30724819  0.76385495  0.85817267     0.05630
H360        H  0.36202441  0.80017881  0.83565974     0.08860
H361        H  0.37660389  0.76164571  0.88583455     0.08860
H362        H  0.29718267  0.64802337  0.67959893     0.08840
H363        H  0.37145130  0.62785128  0.67064285     0.08840
H364        H  0.35135757  0.67428509  0.63637052     0.05620
C365        C  0.05787960  0.74108866  0.75751626    -0.20190
C366        C  0.00883784  0.74318716  0.72742107    -0.06760
C367        C  0.00977932  0.71235570  0.68530538     0.14110
C368        C  0.03967522  0.67439453  0.69060996    -0.20240
C369        C  0.07633093  0.66846422  0.73104856    -0.06760
C370        C  0.08870034  0.70340925  0.76294153     0.14100
C371        C  0.13135149  0.70111687  0.80495808    -0.23590
H372        H  0.07063971  0.76812184  0.77958719     0.15390
H373        H  0.03578809  0.64946874  0.66173005     0.15420
C374        C  0.48770116  0.71821510  0.63110923    -0.23540
H375        H  0.12905272  0.72957429  0.83060863     0.05630
H376        H  0.17668433  0.69916363  0.78597621     0.08860
H377        H  0.12147910  0.67366042  0.83105910     0.08860
H378        H  0.46722827  0.74859233  0.62423610     0.08840
H379        H  0.45627608  0.69300767  0.62334855     0.08840
H380        H  0.52533459  0.71544711  0.60035022     0.05620
C381        C  0.99153918  0.21352940  0.70630977    -0.20190
C382        C  0.01312579  0.17820458  0.73324784    -0.06760
C383        C  0.07520457  0.17814353  0.73616998     0.14110
C384        C  0.10568026  0.21650715  0.73197793    -0.20240
C385        C  0.07928639  0.25304321  0.71368418    -0.06760
C386        C  0.02487354  0.24877287  0.69296214     0.14100
C387        C  0.00045580  0.28048328  0.65646180    -0.23590
H388        H  0.44697966  0.21552383  0.69650322     0.15390
H389        H  0.15012856  0.21744229  0.74331467     0.15420
C390        C  0.11194812  0.13951442  0.74113157    -0.23540
H391        H  0.53227413  0.30554625  0.64443841     0.05630
H392        H  0.98981042  0.26445067  0.61941074     0.08860
H393        H  0.95966355  0.29473494  0.67591956     0.08860
H394        H  0.14511198  0.13725139  0.70637494     0.08840
H395        H  0.08565848  0.11109322  0.74138336     0.08840
H396        H  0.13531368  0.14093875  0.77777200     0.05620
C397        C  0.60445572  0.29533579  0.22260119     0.03250
C398        C  0.56739639  0.32935806  0.23706867    -0.12900
C399        C  0.58989158  0.36861245  0.24839338     0.00750
C400        C  0.65025314  0.37295055  0.25389909    -0.11430
C401        C  0.68788476  0.33811691  0.24332108     0.03240
C402        C  0.66475631  0.30113233  0.22254805    -0.10850
H403        H  0.52031684  0.32569920  0.23962083     0.08830
H404        H  0.66711375  0.40249195  0.26721411     0.06360
H405        H  0.69385604  0.27566901  0.20910817     0.06210
C406        C  0.60036185  0.62574529  0.23861954     0.03250
C407        C  0.66027667  0.61931509  0.24002274    -0.12900
C408        C  0.68298518  0.58114634  0.25783407     0.00750
C409        C  0.64463438  0.54653441  0.26456489    -0.11430
C410        C  0.58485799  0.55142256  0.25565699     0.03240
C411        C  0.56300862  0.59120636  0.24447093    -0.10850
H412        H  0.68911357  0.64496666  0.22807798     0.08830
H413        H  0.66072799  0.51632568  0.27636939     0.06360
H414        H  0.51662138  0.59532034  0.24058763     0.06210
C415        C  0.83060364  0.62398084  0.28274136     0.03250
C416        C  0.77042048  0.61855750  0.28564921    -0.12900
C417        C  0.74579557  0.58036865  0.27064603     0.00750
C418        C  0.78312018  0.54479568  0.26402382    -0.11430
C419        C  0.84392212  0.54917971  0.26921456     0.03240
C420        C  0.86740449  0.58914602  0.27605050    -0.10850
H421        H  0.74340446  0.64597330  0.29433579     0.08830
H422        H  0.76578036  0.51453803  0.25395340     0.06360
H423        H  0.91442891  0.59335068  0.27442572     0.06210
O424        O  0.90629238  0.50081411  0.21908258    -0.74310
O425        O  0.52884135  0.41797133  0.21049387    -0.74340
O426        O  0.90951554  0.41596883  0.21561066    -0.74390
O427        O  0.52543538  0.50290548  0.21372671    -0.74440
O428        O  0.52355001  0.50093295  0.30219133    -0.74380
O429        O  0.90774523  0.41377079  0.30404389    -0.74350
O430        O  0.52697899  0.41636214  0.29899096    -0.74330
O431        O  0.90411222  0.49910381  0.30757860    -0.74390
Ni432      Ni  0.96773175  0.45945495  0.21157141     1.25410
Ni433      Ni  0.96530606  0.45748562  0.30636722     1.25360
C434        C  0.88535109  0.51371449  0.26499931     0.87870
C435        C  0.54803582  0.40368093  0.25305730     0.87800
C436        C  0.88965695  0.40056807  0.26032784     0.87830
C437        C  0.54363737  0.51605583  0.25738025     0.88000
C438        C  0.82993082  0.29119233  0.27931898     0.03250
C439        C  0.77056579  0.29816062  0.27539687    -0.12900
C440        C  0.74960285  0.33674270  0.25784357     0.00750
C441        C  0.78843321  0.37108578  0.25268578    -0.11430
C442        C  0.84790092  0.36540248  0.26184219     0.03240
C443        C  0.86865894  0.32508689  0.27227941    -0.10850
H444        H  0.74081933  0.27218957  0.28359973     0.08830
H445        H  0.77305064  0.40157455  0.24113147     0.06280
H446        H  0.91527265  0.32012071  0.27339873     0.06210
C447        C  0.96723967  0.14282181  0.25248453    -0.02370
C448        C  0.95671704  0.77590659  0.24246692    -0.02370
C449        C  0.99817392  0.04981889  0.45085985     0.03250
C450        C  0.99196011  0.07100539  0.49972305    -0.12900
C451        C  0.97833674  0.04903537  0.04717187     0.00750
C452        C  0.97381803  0.00515574  0.04510241    -0.11430
C453        C  0.98545564  0.98221074  0.49722882     0.03240
C454        C  0.99658674  0.00572790  0.45005809    -0.10850
H455        H  0.99392112  0.10483631  0.50053603     0.08830
H456        H  0.95943153  0.98983655  0.08172670     0.06360
H457        H  0.00127029  0.99089805  0.41151742     0.06210
C458        C  0.95932874  0.86870414  0.04312508     0.03250
C459        C  0.96989841  0.91177446  0.04388882    -0.12900
C460        C  0.98117013  0.93468282  0.49646162     0.00750
C461        C  0.98860189  0.91114474  0.44863404    -0.11430
C462        C  0.97578395  0.86779473  0.44689080     0.03240
C463        C  0.95786577  0.84751856  0.99482850    -0.10850
H464        H  0.97117204  0.92602765  0.08250243     0.08830
H465        H  0.00480647  0.92590726  0.41214738     0.06360
H466        H  0.94528662  0.81484556  0.99522747     0.06210
C467        C  0.96108017  0.86684642  0.35029549    -0.20190
C468        C  0.97771194  0.84498509  0.39446111    -0.06760
C469        C  0.99288366  0.80221326  0.38733742     0.14110
C470        C  0.98218132  0.78195287  0.33975291    -0.20240
C471        C  0.96760010  0.80354138  0.29345537    -0.06760
C472        C  0.96033012  0.84849230  0.29960200     0.14100
C473        C  0.45066027  0.87969340  0.25623383    -0.23590
H474        H  0.94778821  0.89932690  0.35541083     0.15390
H475        H  0.98641151  0.74810789  0.33883873     0.15420
C476        C  0.02279721  0.77684317  0.42741258    -0.23540
H477        H  0.44889530  0.91265277  0.27082229     0.05630
H478        H  0.90801913  0.87478954  0.24042465     0.08860
H479        H  0.48781283  0.87935028  0.22523746     0.08860
H480        H  0.99233172  0.75274470  0.44528282     0.08840
H481        H  0.03955741  0.79640482  0.45902670     0.08840
H482        H  0.06174144  0.76073550  0.40718379     0.05620
C483        C  0.50674361  0.81640245  0.16563341    -0.20190
C484        C  0.95283553  0.80430058  0.19314001    -0.06760
C485        C  0.89997433  0.81738122  0.17139858     0.14110
C486        C  0.90333299  0.83637492  0.12110086    -0.20240
C487        C  0.95731841  0.84534621  0.09339148    -0.06760
C488        C  0.50954040  0.83583724  0.11613060     0.14100
C489        C  0.56861165  0.84557502  0.08767943    -0.23590
H490        H  0.54752278  0.80984625  0.18266090     0.15390
H491        H  0.86346471  0.84613426  0.10441263     0.15420
C492        C  0.83999103  0.81692874  0.20158432    -0.23540
H493        H  0.60514270  0.83496657  0.11052635     0.05630
H494        H  0.57310486  0.87989609  0.08164879     0.08860
H495        H  0.57318243  0.82941554  0.04847934     0.08860
H496        H  0.81877816  0.84812465  0.19853609     0.08840
H497        H  0.84157675  0.81166336  0.24458496     0.08840
H498        H  0.81188544  0.79312980  0.18432382     0.05620
C499        C  0.94759214  0.06373722  0.37080261    -0.20190
C500        C  0.99436378  0.07329972  0.40046608    -0.06760
C501        C  0.53255481  0.10594859  0.38320165     0.14110
C502        C  0.52216461  0.12842049  0.33710385    -0.20240
C503        C  0.97738645  0.11749111  0.30422129    -0.06760
C504        C  0.93773266  0.08519841  0.32410111     0.14100
C505        C  0.88346523  0.07283800  0.29835142    -0.23590
H506        H  0.91717989  0.03957844  0.38543214     0.15390
H507        H  0.54766331  0.15623690  0.32924537     0.15420
C508        C  0.58539206  0.11664644  0.41212715    -0.23540
H509        H  0.86036626  0.04607402  0.31877745     0.05630
H510        H  0.89426893  0.06239947  0.25688743     0.08860
H511        H  0.85181476  0.09913639  0.30145504     0.08860
H512        H  0.61249336  0.08806335  0.41602921     0.08840
H513        H  0.57205595  0.12973556  0.45205419     0.08840
H514        H  0.61334989  0.14043816  0.39033627     0.05620
C515        C  0.94337521  0.13113539  0.15599878    -0.20190
C516        C  0.96608872  0.11360809  0.20161482    -0.06760
C517        C  0.49351782  0.07262539  0.19336664     0.14110
C518        C  0.49554652  0.05344489  0.14286806    -0.20240
C519        C  0.97033127  0.07118119  0.09976660    -0.06760
C520        C  0.94068595  0.10967000  0.10779961     0.14100
C521        C  0.90292525  0.12850460  0.06787220    -0.23590
H522        H  0.92358601  0.16156472  0.15766675     0.15390
H523        H  0.51893877  0.02391334  0.13668725     0.15420
C524        C  0.52324942  0.04542998  0.23250572    -0.23540
H525        H  0.85892702  0.13608168  0.08763598     0.05630
H526        H  0.89511365  0.10680504  0.03492013     0.08860
H527        H  0.92316811  0.15784829  0.05159648     0.08860
H528        H  0.53148635  0.05835031  0.27111112     0.08840
H529        H  0.56758050  0.03625718  0.21458100     0.08840
H530        H  0.49744451  0.01628555  0.23988891     0.05620
C531        C  0.91962074  0.19762753  0.31516313    -0.20190
C532        C  0.91086591  0.16928643  0.27271474    -0.06760
C533        C  0.85856830  0.17607135  0.24672530     0.14110
C534        C  0.83203388  0.21602034  0.25072119    -0.20240
C535        C  0.85146002  0.24747779  0.28420747    -0.06760
C536        C  0.89089350  0.23627413  0.32112435     0.14100
C537        C  0.90309704  0.26462189  0.36689225    -0.23590
H538        H  0.95485629  0.19259999  0.33998874     0.15390
H539        H  0.79682618  0.22294898  0.22608966     0.15420
C540        C  0.82696453  0.14364713  0.21640935    -0.23540
H541        H  0.86116868  0.27356254  0.38967235     0.05630
H542        H  0.93081951  0.24875266  0.39471954     0.08860
H543        H  0.92663612  0.29323448  0.35279271     0.08860
H544        H  0.78256788  0.13877075  0.23684529     0.08840
H545        H  0.84884233  0.11287519  0.21333359     0.08840
H546        H  0.82140272  0.15504613  0.17573807     0.05620
C547        C  0.85793150  0.69424924  0.31577082    -0.20190
C548        C  0.85354948  0.66659032  0.27326134    -0.06760
C549        C  0.85995207  0.68249568  0.22116251     0.14110
C550        C  0.88168797  0.72302596  0.21285641    -0.20240
C551        C  0.90117414  0.74719525  0.25460358    -0.06760
C552        C  0.87620645  0.73582507  0.30647345     0.14100
C553        C  0.85526637  0.76737673  0.34876097    -0.23590
H554        H  0.84263784  0.68443873  0.35563375     0.15390
H555        H  0.88579496  0.73487231  0.17303116     0.15420
C556        C  0.84417298  0.65674964  0.17425146    -0.23540
H557        H  0.80724879  0.76385635  0.35817321     0.05630
H558        H  0.86202530  0.80018009  0.33566033     0.08860
H559        H  0.87660423  0.76164719  0.38583557     0.08860
H560        H  0.79718231  0.64802457  0.17960110     0.08840
H561        H  0.87145087  0.62785242  0.17064419     0.08840
H562        H  0.85135675  0.67428627  0.13637214     0.05620
C563        C  0.55788033  0.74108868  0.25751888    -0.20190
C564        C  0.50883877  0.74318698  0.22742343    -0.06760
C565        C  0.50978010  0.71235508  0.18530830     0.14110
C566        C  0.53967579  0.67439395  0.19061359    -0.20240
C567        C  0.57633136  0.66846403  0.23105238    -0.06760
C568        C  0.58870077  0.70340930  0.26294491     0.14100
C569        C  0.63135155  0.70111720  0.30496182    -0.23590
H570        H  0.57064055  0.76812206  0.27958938     0.15390
H571        H  0.53578869  0.64946789  0.16173404     0.15420
C572        C  0.98770203  0.71821388  0.13111200    -0.23540
H573        H  0.62905262  0.72957481  0.33061203     0.05630
H574        H  0.67668452  0.69916379  0.28598030     0.08860
H575        H  0.62147887  0.67366096  0.33106312     0.08860
H576        H  0.96722970  0.74859118  0.12423814     0.08840
H577        H  0.95627656  0.69300656  0.12335190     0.08840
H578        H  0.02533542  0.71544522  0.10035305     0.05620
C579        C  0.49153970  0.21352898  0.20630718    -0.20190
C580        C  0.51312563  0.17820439  0.23324620    -0.06760
C581        C  0.57520417  0.17814356  0.23616984     0.14110
C582        C  0.60567981  0.21650724  0.23197784    -0.20240
C583        C  0.57928628  0.25304311  0.21368313    -0.06760
C584        C  0.52487400  0.24877259  0.19296019     0.14100
C585        C  0.50045670  0.28048306  0.15645965    -0.23590
H586        H  0.94698064  0.21552319  0.19649943     0.15390
H587        H  0.65012782  0.21744266  0.24331532     0.15420
C588        C  0.61194755  0.13951453  0.24113269    -0.23540
H589        H  0.03227504  0.30554614  0.14443670     0.05630
H590        H  0.48981201  0.26445054  0.11940831     0.08860
H591        H  0.45966413  0.29473454  0.17591700     0.08860
H592        H  0.64511223  0.13725127  0.20637670     0.08840
H593        H  0.58565797  0.11109327  0.24138429     0.08840
H594        H  0.63531215  0.14093918  0.27777365     0.05620
C595        C  0.60445599  0.29533583  0.72260266     0.03250
C596        C  0.56739667  0.32935818  0.73706981    -0.12900
C597        C  0.58989178  0.36861248  0.74839500     0.00750
C598        C  0.65025317  0.37295035  0.75390182    -0.11430
C599        C  0.68788474  0.33811658  0.74332433     0.03240
C600        C  0.66475656  0.30113216  0.72255070    -0.10850
H601        H  0.52031712  0.32569948  0.73962155     0.08830
H602        H  0.66711368  0.40249167  0.76721719     0.06360
H603        H  0.69385651  0.27566887  0.70911118     0.06210
C604        C  0.60036128  0.62574530  0.73861532     0.03250
C605        C  0.66027612  0.61931488  0.74001856    -0.12900
C606        C  0.68298436  0.58114606  0.75783003     0.00750
C607        C  0.64463331  0.54653433  0.76456111    -0.11430
C608        C  0.58485697  0.55142263  0.75565326     0.03240
C609        C  0.56300782  0.59120647  0.74446686    -0.10850
H610        H  0.68911323  0.64496638  0.72807397     0.08830
H611        H  0.66072667  0.51632564  0.77636602     0.06360
H612        H  0.51662055  0.59532058  0.74058378     0.06210
C613        C  0.83060246  0.62397991  0.78273967     0.03250
C614        C  0.77041933  0.61855681  0.78564633    -0.12900
C615        C  0.74579455  0.58036810  0.77064256     0.00750
C616        C  0.78311907  0.54479502  0.76402079    -0.11430
C617        C  0.84392084  0.54917883  0.76921272     0.03240
C618        C  0.86740319  0.58914502  0.77604940    -0.10850
H619        H  0.74340335  0.64597269  0.79433249     0.08830
H620        H  0.76577930  0.51453744  0.75394994     0.06360
H621        H  0.91442761  0.59334957  0.77442549     0.06210
O622        O  0.90629087  0.50081247  0.71908165    -0.74310
O623        O  0.52884091  0.41797047  0.71049458    -0.74340
O624        O  0.90951509  0.41596720  0.71561237    -0.74390
O625        O  0.52543393  0.50290471  0.71372476    -0.74440
O626        O  0.52354941  0.50093380  0.80218940    -0.74380
O627        O  0.90774559  0.41377085  0.80404563    -0.74350
O628        O  0.52697943  0.41636297  0.79899167    -0.74330
O629        O  0.90411164  0.49910391  0.80757766    -0.74390
Ni630      Ni  0.96773077  0.45945366  0.71157133     1.25410
Ni631      Ni  0.96530598  0.45748615  0.80636716     1.25360
C632        C  0.88534988  0.51371361  0.76499812     0.87870
C633        C  0.54803596  0.40368099  0.75305826     0.87800
C634        C  0.88965699  0.40056722  0.76033013     0.87830
C635        C  0.54363620  0.51605599  0.75737777     0.88000
C636        C  0.82993028  0.29119176  0.77932392     0.03250
C637        C  0.77056523  0.29816015  0.77540137    -0.12900
C638        C  0.74960259  0.33674220  0.75784751     0.00750
C639        C  0.78843317  0.37108507  0.75268925    -0.11430
C640        C  0.84790079  0.36540172  0.76184580     0.03240
C641        C  0.86865856  0.32508622  0.77228382    -0.10850
H642        H  0.74081853  0.27218923  0.78360415     0.08830
H643        H  0.77305087  0.40157373  0.74113424     0.06280
H644        H  0.91527229  0.32011999  0.77340299     0.06210
C645        C  0.96724018  0.14282191  0.75248672    -0.02370
C646        C  0.95671551  0.77590614  0.74246574    -0.02370
C647        C  0.99818267  0.04981734  0.95085903     0.03250
C648        C  0.99196747  0.07100374  0.99972224    -0.12900
C649        C  0.97833095  0.04903707  0.54717301     0.00750
C650        C  0.97381223  0.00515744  0.54510381    -0.11430
C651        C  0.98546364  0.98220911  0.99722759     0.03240
C652        C  0.99659661  0.00572634  0.95005711    -0.10850
H653        H  0.99392817  0.10483468  0.00053529     0.08830
H654        H  0.95942789  0.98983836  0.58172864     0.06360
H655        H  0.00128229  0.99089661  0.91151641     0.06210
C656        C  0.95932168  0.86870533  0.54312561     0.03250
C657        C  0.96988873  0.91177596  0.54388983    -0.12900
C658        C  0.98117764  0.93468123  0.99646034     0.00750
C659        C  0.98860584  0.91114319  0.94863259    -0.11430
C660        C  0.97578682  0.86779331  0.94688997     0.03240
C661        C  0.95786163  0.84751969  0.49482881    -0.10850
H662        H  0.97115900  0.92602912  0.58250375     0.08830
H663        H  0.00480812  0.92590566  0.91214525     0.06360
H664        H  0.94528383  0.81484643  0.49522737     0.06210
C665        C  0.96107892  0.86684511  0.85029554    -0.20190
C666        C  0.97771234  0.84498364  0.89446042    -0.06760
C667        C  0.99288388  0.80221181  0.88733609     0.14110
C668        C  0.98218083  0.78195174  0.83975151    -0.20240
C669        C  0.96759871  0.80354056  0.79345449    -0.06760
C670        C  0.96032779  0.84849136  0.79960194     0.14100
C671        C  0.45065555  0.87969269  0.75623460    -0.23590
H672        H  0.94778659  0.89932546  0.85541160     0.15390
H673        H  0.98641128  0.74810678  0.83883679     0.15420
C674        C  0.02279795  0.77684137  0.92741057    -0.23540
H675        H  0.44888966  0.91265191  0.77082361     0.05630
H676        H  0.90801404  0.87478810  0.74042636     0.08860
H677        H  0.48780738  0.87935059  0.72523751     0.08860
H678        H  0.99233246  0.75274302  0.94528113     0.08840
H679        H  0.03955904  0.79640275  0.95902450     0.08840
H680        H  0.06174168  0.76073353  0.90718114     0.05620
C681        C  0.50673968  0.81640358  0.66563265    -0.20190
C682        C  0.95283241  0.80430057  0.69313949    -0.06760
C683        C  0.89997043  0.81738057  0.67139882     0.14110
C684        C  0.90332782  0.83637473  0.62110143    -0.20240
C685        C  0.95731263  0.84534718  0.59339176    -0.06760
C686        C  0.50953515  0.83583899  0.61613026     0.14100
C687        C  0.56860575  0.84557845  0.58767895    -0.23590
H688        H  0.54751931  0.80984783  0.68265960     0.15390
H689        H  0.86345898  0.84613347  0.60441369     0.15420
C690        C  0.83998741  0.81692688  0.70158503    -0.23540
H691        H  0.60513750  0.83497069  0.61052546     0.05630
H692        H  0.57309720  0.87989971  0.58164892     0.08860
H693        H  0.57317706  0.82941945  0.54847857     0.08860
H694        H  0.81877339  0.84812243  0.69853732     0.08840
H695        H  0.84157376  0.81166134  0.74458556     0.08840
H696        H  0.81188246  0.79312752  0.68432453     0.05620
C697        C  0.94759818  0.06373576  0.87080349    -0.20190
C698        C  0.99437094  0.07329825  0.90046559    -0.06760
C699        C  0.53256067  0.10594795  0.88320104     0.14110
C700        C  0.52216813  0.12842045  0.83710431    -0.20240
C701        C  0.97738888  0.11749093  0.80422282    -0.06760
C702        C  0.93773628  0.08519768  0.82410311     0.14100
C703        C  0.88346785  0.07283731  0.79835499    -0.23590
H704        H  0.91718691  0.03957648  0.88543334     0.15390
H705        H  0.54766594  0.15623727  0.82924580     0.15420
C706        C  0.58539872  0.11664599  0.91212531    -0.23540
H707        H  0.86036979  0.04607307  0.81878130     0.05630
H708        H  0.89427021  0.06239915  0.75689067     0.08860
H709        H  0.85181720  0.09913558  0.80145989     0.08860
H710        H  0.61250128  0.08806324  0.91602533     0.08840
H711        H  0.57206355  0.12973383  0.95205322     0.08840
H712        H  0.61335494  0.14043874  0.89033467     0.05620
C713        C  0.94337294  0.13113641  0.65600157    -0.20190
C714        C  0.96608791  0.11360868  0.70161671    -0.06760
C715        C  0.49351727  0.07262615  0.69336720     0.14110
C716        C  0.49554479  0.05344624  0.64286835    -0.20240
C717        C  0.97032766  0.07118279  0.59976793    -0.06760
C718        C  0.94068237  0.10967149  0.60780222     0.14100
C719        C  0.90292037  0.12850646  0.56787609    -0.23590
H720        H  0.92358354  0.16156568  0.65767053     0.15390
H721        H  0.51893728  0.02391488  0.63668651     0.15420
C722        C  0.52325003  0.04543030  0.73250506    -0.23540
H723        H  0.85892260  0.13608336  0.58764099     0.05630
H724        H  0.89510780  0.10680721  0.53492398     0.08860
H725        H  0.92316276  0.15785029  0.55160035     0.08860
H726        H  0.53148782  0.05835017  0.77111048     0.08840
H727        H  0.56758080  0.03625779  0.71457933     0.08840
H728        H  0.49744539  0.01628573  0.73988818     0.05620
C729        C  0.91962217  0.19762731  0.81516647    -0.20190
C730        C  0.91086658  0.16928624  0.77271828    -0.06760
C731        C  0.85856794  0.17607078  0.74673022     0.14110
C732        C  0.83203297  0.21601957  0.75072677    -0.20240
C733        C  0.85145957  0.24747717  0.78421256    -0.06760
C734        C  0.89089430  0.23627370  0.82112851     0.14100
C735        C  0.90309842  0.26462136  0.86689633    -0.23590
H736        H  0.95485855  0.19259991  0.83999122     0.15390
H737        H  0.79682452  0.22294794  0.72609598     0.15420
C738        C  0.82696366  0.14364633  0.71641508    -0.23540
H739        H  0.86117034  0.27356155  0.88967724     0.05630
H740        H  0.93082184  0.24875222  0.89472291     0.08860
H741        H  0.92663672  0.29323423  0.85279670     0.08860
H742        H  0.78256765  0.13876953  0.73685214     0.08840
H743        H  0.84884196  0.11287459  0.71333858     0.08840
H744        H  0.82140031  0.15504534  0.67574411     0.05620
C745        C  0.85793044  0.69424810  0.81576946    -0.20190
C746        C  0.85354866  0.66658925  0.77325988    -0.06760
C747        C  0.85995179  0.68249456  0.72116106     0.14110
C748        C  0.88168759  0.72302484  0.71285516    -0.20240
C749        C  0.90117340  0.74719414  0.75460248    -0.06760
C750        C  0.87620554  0.73582390  0.80647230     0.14100
C751        C  0.85526573  0.76737541  0.84876012    -0.23590
H752        H  0.84263652  0.68443753  0.85563231     0.15390
H753        H  0.88579460  0.73487129  0.67302998     0.15420
C754        C  0.84417337  0.65674849  0.67424979    -0.23540
H755        H  0.80724821  0.76385497  0.85817264     0.05630
H756        H  0.86202444  0.80017883  0.83565971     0.08860
H757        H  0.87660391  0.76164572  0.88583452     0.08860
H758        H  0.79718270  0.64802338  0.67959890     0.08840
H759        H  0.87145133  0.62785129  0.67064283     0.08840
H760        H  0.85135761  0.67428510  0.63637049     0.05620
C761        C  0.55787957  0.74108866  0.75751627    -0.20190
C762        C  0.50883781  0.74318716  0.72742109    -0.06760
C763        C  0.50977928  0.71235570  0.68530540     0.14110
C764        C  0.53967519  0.67439453  0.69060997    -0.20240
C765        C  0.57633091  0.66846422  0.73104857    -0.06760
C766        C  0.58870032  0.70340926  0.76294154     0.14100
C767        C  0.63135147  0.70111688  0.80495809    -0.23590
H768        H  0.57063967  0.76812184  0.77958720     0.15390
H769        H  0.53578806  0.64946874  0.66173006     0.15420
C770        C  0.98770120  0.71821511  0.63110921    -0.23540
H771        H  0.62905270  0.72957430  0.83060863     0.05630
H772        H  0.67668431  0.69916364  0.78597622     0.08860
H773        H  0.62147908  0.67366043  0.83105912     0.08860
H774        H  0.96722832  0.74859235  0.62423608     0.08840
H775        H  0.95627612  0.69300768  0.62334852     0.08840
H776        H  0.02533464  0.71544712  0.60035020     0.05620
C777        C  0.49153921  0.21352940  0.70630975    -0.20190
C778        C  0.51312582  0.17820459  0.73324783    -0.06760
C779        C  0.57520461  0.17814354  0.73616996     0.14110
C780        C  0.60568029  0.21650716  0.73197790    -0.20240
C781        C  0.57928642  0.25304322  0.71368414    -0.06760
C782        C  0.52487357  0.24877287  0.69296211     0.14100
C783        C  0.50045582  0.28048328  0.65646176    -0.23590
H784        H  0.94697963  0.21552384  0.69650324     0.15390
H785        H  0.65012859  0.21744230  0.74331464     0.15420
C786        C  0.61194815  0.13951443  0.74113157    -0.23540
H787        H  0.03227411  0.30554625  0.64443845     0.05630
H788        H  0.48981044  0.26445066  0.61941071     0.08860
H789        H  0.45966357  0.29473493  0.67591952     0.08860
H790        H  0.64511202  0.13725140  0.70637493     0.08840
H791        H  0.58565853  0.11109323  0.74138337     0.08840
H792        H  0.63531372  0.14093877  0.77777199     0.05620
loop_ 
_geom_bond_atom_site_label_1 
_geom_bond_atom_site_label_2 
_geom_bond_distance 
_geom_bond_site_symmetry_2 
_ccdc_geom_bond_type 
C1            C2   1.401       .  A
C1            C6   1.394       .  A
C1          C187   1.493       .  S
C2            C3   1.393       .  A
C2            H7   1.082       .  S
C3            C4   1.409       .  A
C3           C39   1.467       .  S
C4            C5   1.413       .  A
C4            H8   1.083       .  S
C5            C6   1.412       .  A
C5           C44   1.493       .  S
C6            H9   1.082       .  S
C10          C11   1.391       .  A
C10          C15   1.398       .  A
C10         C171   1.487       .  S
C11          C12   1.413       .  A
C11          H16   1.081       .  S
C12          C13   1.415       .  A
C12          C21   1.503       .  S
C13          C14   1.416       .  A
C13          H17   1.083       .  S
C14          C15   1.401       .  A
C14          C41   1.472       .  S
C15          H18   1.083       .  S
C19          C20   1.386       .  A
C19          C24   1.392       .  A
C19         C152   1.472       .  S
C20          C21   1.408       .  A
C20          H25   1.079       .  S
C21          C22   1.418       .  A
C22          C23   1.418       .  A
C22          H26   1.083       .  S
C23          C24   1.401       .  A
C23          C38   1.471       .  S
C24          H27   1.083       .  S
O28         Ni36   1.921       .  S
O28          C38   1.280       .  A
O29        Ni432   1.920   1_455  S
O29          C39   1.282       .  A
O30         Ni36   1.925       .  S
O30          C40   1.280       .  A
O31        Ni432   1.923   1_455  S
O31          C41   1.282       .  A
O32        Ni433   1.924   1_455  S
O32          C41   1.280       .  A
O33         Ni37   1.927       .  S
O33          C40   1.283       .  A
O34        Ni433   1.920   1_455  S
O34          C39   1.279       .  A
O35         Ni37   1.924       .  S
O35          C38   1.282       .  A
Ni36        O425   1.920       .  S
Ni36        O427   1.923       .  S
Ni36        Ni37   2.391       .  S
Ni37        O428   1.924       .  S
Ni37        O430   1.920       .  S
C40          C46   1.475       .  S
C42          C43   1.389       .  A
C42          C47   1.403       .  A
C42         C139   1.486       .  S
C43          C44   1.407       .  A
C43          H48   1.084       .  S
C44          C45   1.413       .  A
C45          C46   1.413       .  A
C45          H49   1.083       .  S
C46          C47   1.403       .  A
C47          H50   1.082       .  S
C51         C107   1.574       .  S
C51         C120   1.585       .  S
C51         C136   1.584       .  S
C51         C580   1.593       .  S
C52          C75   1.595       .  S
C52          C88   1.553       .  S
C52         C155   1.579       .  S
C52         C564   1.601       .  S
C53          C54   1.400       .  A
C53          C58   1.406       .  A
C53         C104   1.489       .  S
C54         C253   1.403       .  A
C54          H59   1.080       .  S
C55          C56   1.404       .  A
C55         C252   1.403   1_554  A
C55         C123   1.498       .  S
C56         C255   1.414   1_544  A
C56          H60   1.074   1_545  S
C57          C58   1.415   1_565  A
C57         C254   1.414   1_565  A
C57          C64   1.519       .  S
C58          H61   1.077   1_545  S
C62          C63   1.396       .  A
C62          C67   1.395   1_554  A
C62          C91   1.472       .  S
C63         C262   1.411   1_554  A
C63          H68   1.077       .  S
C64          C65   1.416       .  A
C64         C261   1.411       .  A
C65          C66   1.415       .  A
C65          H69   1.074       .  S
C66         C265   1.405       .  A
C66          C72   1.505       .  S
C67         C264   1.405       .  A
C67          H70   1.082       .  S
C71          C72   1.399       .  A
C71          C76   1.407       .  A
C71          H78   1.082       .  S
C72          C73   1.413       .  A
C73          C74   1.403       .  A
C73          C80   1.509       .  S
C74          C75   1.424       .  A
C74          H79   1.083       .  S
C75          C76   1.448       .  A
C76         C473   1.514       .  S
C77         C472   1.514       .  S
C77          H81   1.111       .  S
C77          H83   1.104       .  S
C77         H478   1.099       .  S
C80          H84   1.110       .  S
C80          H85   1.107       .  S
C80          H86   1.110       .  S
H82         C473   1.099       .  S
C87          C92   1.395       .  A
C87         C484   1.418   1_455  A
C87          H94   1.083       .  S
C88          C89   1.435       .  A
C88         C483   1.418       .  A
C89          C90   1.406       .  A
C89          C96   1.511       .  S
C90          C91   1.397       .  A
C90          H95   1.085       .  S
C91         C488   1.405       .  A
C92         C487   1.405   1_455  A
C92          C93   1.509       .  S
C93          H97   1.111       .  S
C93          H98   1.110       .  S
C93          H99   1.110       .  S
C96         H100   1.111       .  S
C96         H101   1.104       .  S
C96         H102   1.110       .  S
C103        C104   1.395       .  A
C103        C108   1.402       .  A
C103        H110   1.085       .  S
C104        C501   1.408       .  A
C105        C106   1.408       .  A
C105        C500   1.408   1_455  A
C105        C112   1.508       .  S
C106        C503   1.420   1_455  A
C106        H111   1.074       .  S
C107        C108   1.438       .  A
C107        C502   1.420       .  A
C108        C109   1.507       .  S
C109        H113   1.111       .  S
C109        H114   1.104       .  S
C109        H115   1.104       .  S
C112        H116   1.110       .  S
C112        H117   1.106       .  S
C112        H118   1.111       .  S
C119        C120   1.422       .  A
C119        C124   1.400       .  A
C119        H126   1.068       .  S
C120        C517   1.453       .  A
C121        C122   1.409       .  A
C121        C516   1.453       .  A
C121        C128   1.522   1_655  S
C122        C519   1.398       .  A
C122        H127   1.085   1_655  S
C123        C124   1.405       .  A
C123        C518   1.398       .  A
C124        C125   1.511       .  S
C125        H129   1.109       .  S
C125        H130   1.107       .  S
C125        H131   1.110       .  S
C128        H132   1.089       .  S
C128        H133   1.112       .  S
C128        H134   1.111   1_455  S
C135        C136   1.427       .  A
C135        C140   1.396       .  A
C135        H142   1.077       .  S
C136        C137   1.433       .  A
C137        C138   1.408       .  A
C137        C144   1.509       .  S
C138        C139   1.408       .  A
C138        H143   1.084       .  S
C139        C140   1.402       .  A
C140        C141   1.510       .  S
C141        H145   1.110       .  S
C141        H146   1.111       .  S
C141        H147   1.106       .  S
C144        H148   1.111       .  S
C144        H149   1.099       .  S
C144        H150   1.109       .  S
C151        C152   1.397       .  A
C151        C156   1.406       .  A
C151        H158   1.084       .  S
C152        C153   1.408       .  A
C153        C154   1.397       .  A
C153        C160   1.509       .  S
C154        C155   1.408       .  A
C154        H159   1.073       .  S
C155        C156   1.431       .  A
C156        C157   1.509       .  S
C157        H161   1.111       .  S
C157        H162   1.106       .  S
C157        H163   1.110       .  S
C160        H164   1.110       .  S
C160        H165   1.110       .  S
C160        H166   1.110       .  S
C167        C168   1.413       .  A
C167        C172   1.404       .  A
C167        H174   1.080       .  S
C168        C169   1.443       .  A
C168        C448   1.601   1_455  S
C169        C170   1.401       .  A
C169        C572   1.513   1_455  S
C170        C171   1.392       .  A
C170        H175   1.085       .  S
C171        C172   1.416       .  A
C172        C173   1.507       .  S
C173        H177   1.111       .  S
C173        H178   1.106       .  S
C173        H179   1.110       .  S
C176        C565   1.513       .  S
C176        H180   1.096       .  S
C176        H181   1.110       .  S
C176        H182   1.111       .  S
C183        C184   1.428   1_655  A
C183        C188   1.387   1_655  A
C183        H586   1.073       .  S
C184        C185   1.431       .  A
C184        C447   1.593   1_455  S
C185        C186   1.411       .  A
C185        C192   1.501       .  S
C186        C187   1.409       .  A
C186        H191   1.083       .  S
C187        C188   1.401       .  A
C188        C189   1.511       .  S
C189        H194   1.111   1_455  S
C189        H195   1.111   1_455  S
C189        H589   1.109       .  S
H190        C579   1.073       .  S
C192        H196   1.110       .  S
C192        H197   1.090       .  S
C192        H198   1.111       .  S
H193        C585   1.109       .  S
C199        C200   1.401       .  A
C199        C204   1.394       .  A
C199        C385   1.493       .  S
C200        C201   1.393       .  A
C200        H205   1.082       .  S
C201        C202   1.409       .  A
C201        C237   1.467       .  S
C202        C203   1.413       .  A
C202        H206   1.083       .  S
C203        C204   1.412       .  A
C203        C242   1.493       .  S
C204        H207   1.082       .  S
C208        C209   1.391       .  A
C208        C213   1.398       .  A
C208        C369   1.487       .  S
C209        C210   1.413       .  A
C209        H214   1.081       .  S
C210        C211   1.415       .  A
C210        C219   1.503       .  S
C211        C212   1.416       .  A
C211        H215   1.083       .  S
C212        C213   1.401       .  A
C212        C239   1.472       .  S
C213        H216   1.083       .  S
C217        C218   1.386       .  A
C217        C222   1.392       .  A
C217        C350   1.472       .  S
C218        C219   1.408       .  A
C218        H223   1.079       .  S
C219        C220   1.418       .  A
C220        C221   1.418       .  A
C220        H224   1.083       .  S
C221        C222   1.401       .  A
C221        C236   1.471       .  S
C222        H225   1.083       .  S
O226       Ni234   1.921       .  S
O226        C236   1.280       .  A
O227       Ni630   1.920   1_455  S
O227        C237   1.282       .  A
O228       Ni234   1.925       .  S
O228        C238   1.280       .  A
O229       Ni630   1.923   1_455  S
O229        C239   1.282       .  A
O230       Ni631   1.924   1_455  S
O230        C239   1.280       .  A
O231       Ni235   1.927       .  S
O231        C238   1.283       .  A
O232       Ni631   1.920   1_455  S
O232        C237   1.279       .  A
O233       Ni235   1.924       .  S
O233        C236   1.282       .  A
Ni234       O623   1.920       .  S
Ni234       O625   1.923       .  S
Ni234      Ni235   2.391       .  S
Ni235       O626   1.924       .  S
Ni235       O628   1.920       .  S
C238        C244   1.475       .  S
C240        C241   1.389       .  A
C240        C245   1.403       .  A
C240        C337   1.486       .  S
C241        C242   1.407       .  A
C241        H246   1.084       .  S
C242        C243   1.413       .  A
C243        C244   1.413       .  A
C243        H247   1.083       .  S
C244        C245   1.403       .  A
C245        H248   1.082       .  S
C249        C305   1.574       .  S
C249        C318   1.585       .  S
C249        C334   1.584       .  S
C249        C778   1.593       .  S
C250        C273   1.595       .  S
C250        C286   1.553       .  S
C250        C353   1.579       .  S
C250        C762   1.601       .  S
C251        C252   1.400       .  A
C251        C256   1.406       .  A
C251        C302   1.489       .  S
C252        H257   1.080   1_556  S
C253        C254   1.404       .  A
C253        C321   1.498       .  S
C254        H258   1.074   1_545  S
C255        C256   1.415   1_565  A
C255        C262   1.519       .  S
C256        H259   1.077   1_545  S
C260        C261   1.396       .  A
C260        C265   1.395       .  A
C260        C289   1.472       .  S
C261        H266   1.077       .  S
C262        C263   1.416       .  A
C263        C264   1.415       .  A
C263        H267   1.074       .  S
C264        C270   1.505       .  S
C265        H268   1.082       .  S
C269        C270   1.399       .  A
C269        C274   1.407       .  A
C269        H276   1.082       .  S
C270        C271   1.413       .  A
C271        C272   1.403       .  A
C271        C278   1.509       .  S
C272        C273   1.424       .  A
C272        H277   1.083       .  S
C273        C274   1.448       .  A
C274        C671   1.514       .  S
C275        C670   1.514       .  S
C275        H279   1.111       .  S
C275        H676   1.099       .  S
C275        H281   1.104       .  S
C278        H282   1.110       .  S
C278        H283   1.107       .  S
C278        H284   1.110       .  S
H280        C671   1.099       .  S
C285        C682   1.418   1_455  A
C285        C290   1.395       .  A
C285        H292   1.083       .  S
C286        C681   1.418       .  A
C286        C287   1.435       .  A
C287        C288   1.406       .  A
C287        C294   1.511       .  S
C288        C289   1.397       .  A
C288        H293   1.085       .  S
C289        C686   1.405       .  A
C290        C685   1.405   1_455  A
C290        C291   1.509       .  S
C291        H295   1.111       .  S
C291        H296   1.110       .  S
C291        H297   1.110       .  S
C294        H298   1.111       .  S
C294        H299   1.104       .  S
C294        H300   1.110       .  S
C301        C302   1.395       .  A
C301        C306   1.402       .  A
C301        H308   1.085       .  S
C302        C699   1.408       .  A
C303        C698   1.408   1_455  A
C303        C304   1.408       .  A
C303        C310   1.508       .  S
C304        C701   1.420   1_455  A
C304        H309   1.074       .  S
C305        C700   1.420       .  A
C305        C306   1.438       .  A
C306        C307   1.507       .  S
C307        H311   1.111       .  S
C307        H312   1.104       .  S
C307        H313   1.104       .  S
C310        H314   1.110       .  S
C310        H315   1.106       .  S
C310        H316   1.111       .  S
C317        C318   1.422       .  A
C317        C322   1.400       .  A
C317        H324   1.068       .  S
C318        C715   1.453       .  A
C319        C714   1.453       .  A
C319        C320   1.409       .  A
C319        C326   1.522   1_655  S
C320        C717   1.398       .  A
C320        H325   1.085   1_655  S
C321        C716   1.398       .  A
C321        C322   1.405       .  A
C322        C323   1.511       .  S
C323        H327   1.109       .  S
C323        H328   1.107       .  S
C323        H329   1.110       .  S
C326        H330   1.089       .  S
C326        H331   1.112       .  S
C326        H332   1.111   1_455  S
C333        C334   1.427       .  A
C333        C338   1.396       .  A
C333        H340   1.077       .  S
C334        C335   1.433       .  A
C335        C336   1.408       .  A
C335        C342   1.509       .  S
C336        C337   1.408       .  A
C336        H341   1.084       .  S
C337        C338   1.402       .  A
C338        C339   1.510       .  S
C339        H343   1.110       .  S
C339        H344   1.111       .  S
C339        H345   1.106       .  S
C342        H346   1.111       .  S
C342        H347   1.099       .  S
C342        H348   1.109       .  S
C349        C350   1.397       .  A
C349        C354   1.406       .  A
C349        H356   1.084       .  S
C350        C351   1.408       .  A
C351        C352   1.397       .  A
C351        C358   1.509       .  S
C352        C353   1.408       .  A
C352        H357   1.073       .  S
C353        C354   1.431       .  A
C354        C355   1.509       .  S
C355        H359   1.111       .  S
C355        H360   1.106       .  S
C355        H361   1.110       .  S
C358        H362   1.110       .  S
C358        H363   1.110       .  S
C358        H364   1.110       .  S
C365        C366   1.413       .  A
C365        C370   1.404       .  A
C365        H372   1.080       .  S
C366        C367   1.443       .  A
C366        C646   1.601   1_455  S
C367        C368   1.401       .  A
C367        C770   1.513   1_455  S
C368        C369   1.392       .  A
C368        H373   1.085       .  S
C369        C370   1.416       .  A
C370        C371   1.507       .  S
C371        H375   1.111       .  S
C371        H376   1.106       .  S
C371        H377   1.110       .  S
C374        C763   1.513       .  S
C374        H378   1.096       .  S
C374        H379   1.110       .  S
C374        H380   1.111       .  S
C381        C382   1.428   1_655  A
C381        C386   1.387   1_655  A
C381        H784   1.073       .  S
C382        C383   1.431       .  A
C382        C645   1.593   1_455  S
C383        C384   1.411       .  A
C383        C390   1.501       .  S
C384        C385   1.409       .  A
C384        H389   1.083       .  S
C385        C386   1.401       .  A
C386        C387   1.511       .  S
C387        H787   1.109       .  S
C387        H392   1.111   1_455  S
C387        H393   1.111   1_455  S
H388        C777   1.073       .  S
C390        H394   1.110       .  S
C390        H395   1.090       .  S
C390        H396   1.111       .  S
H391        C783   1.109       .  S
C397        C398   1.401       .  A
C397        C402   1.394       .  A
C397        C583   1.493       .  S
C398        C399   1.393       .  A
C398        H403   1.082       .  S
C399        C400   1.409       .  A
C399        C435   1.467       .  S
C400        C401   1.413       .  A
C400        H404   1.083       .  S
C401        C402   1.412       .  A
C401        C440   1.493       .  S
C402        H405   1.082       .  S
C406        C407   1.391       .  A
C406        C411   1.398       .  A
C406        C567   1.487       .  S
C407        C408   1.413       .  A
C407        H412   1.081       .  S
C408        C409   1.415       .  A
C408        C417   1.503       .  S
C409        C410   1.416       .  A
C409        H413   1.083       .  S
C410        C411   1.401       .  A
C410        C437   1.472       .  S
C411        H414   1.083       .  S
C415        C416   1.386       .  A
C415        C420   1.392       .  A
C415        C548   1.472       .  S
C416        C417   1.408       .  A
C416        H421   1.079       .  S
C417        C418   1.418       .  A
C418        C419   1.418       .  A
C418        H422   1.083       .  S
C419        C420   1.401       .  A
C419        C434   1.471       .  S
C420        H423   1.083       .  S
O424       Ni432   1.921       .  S
O424        C434   1.280       .  A
O425        C435   1.282       .  A
O426       Ni432   1.925       .  S
O426        C436   1.280       .  A
O427        C437   1.282       .  A
O428        C437   1.280       .  A
O429       Ni433   1.927       .  S
O429        C436   1.283       .  A
O430        C435   1.279       .  A
O431       Ni433   1.924       .  S
O431        C434   1.282       .  A
Ni432      Ni433   2.391       .  S
C436        C442   1.475       .  S
C438        C439   1.389       .  A
C438        C443   1.403       .  A
C438        C535   1.486       .  S
C439        C440   1.407       .  A
C439        H444   1.084       .  S
C440        C441   1.413       .  A
C441        C442   1.413       .  A
C441        H445   1.083       .  S
C442        C443   1.403       .  A
C443        H446   1.082       .  S
C447        C503   1.574       .  S
C447        C516   1.585       .  S
C447        C532   1.584       .  S
C448        C471   1.595       .  S
C448        C484   1.553       .  S
C448        C551   1.579       .  S
C449        C450   1.400       .  A
C449        C454   1.406       .  A
C449        C500   1.489       .  S
C450        C649   1.403       .  A
C450        H455   1.080       .  S
C451        C648   1.403   1_554  A
C451        C452   1.404       .  A
C451        C519   1.498       .  S
C452        C651   1.414   1_544  A
C452        H456   1.074   1_545  S
C453        C650   1.414   1_565  A
C453        C454   1.415   1_565  A
C453        C460   1.519       .  S
C454        H457   1.077   1_645  S
C458        C459   1.396       .  A
C458        C463   1.395   1_554  A
C458        C487   1.472       .  S
C459        C658   1.411   1_554  A
C459        H464   1.077       .  S
C460        C657   1.411       .  A
C460        C461   1.416       .  A
C461        C462   1.415       .  A
C461        H465   1.074   1_655  S
C462        C661   1.405       .  A
C462        C468   1.505       .  S
C463        C660   1.405       .  A
C463        H466   1.082       .  S
C467        C468   1.399       .  A
C467        C472   1.407       .  A
C467        H474   1.082       .  S
C468        C469   1.413       .  A
C469        C470   1.403       .  A
C469        C476   1.509   1_655  S
C470        C471   1.424       .  A
C470        H475   1.083       .  S
C471        C472   1.448       .  A
C473        H477   1.111       .  S
C473        H479   1.104       .  S
C476        H480   1.110   1_455  S
C476        H481   1.107       .  S
C476        H482   1.110       .  S
C483        C488   1.395       .  A
C483        H490   1.083       .  S
C484        C485   1.435       .  A
C485        C486   1.406       .  A
C485        C492   1.511       .  S
C486        C487   1.397       .  A
C486        H491   1.085       .  S
C488        C489   1.509       .  S
C489        H493   1.111       .  S
C489        H494   1.110       .  S
C489        H495   1.110       .  S
C492        H496   1.111       .  S
C492        H497   1.104       .  S
C492        H498   1.110       .  S
C499        C500   1.395       .  A
C499        C504   1.402       .  A
C499        H506   1.085       .  S
C501        C502   1.408       .  A
C501        C508   1.508       .  S
C502        H507   1.074       .  S
C503        C504   1.438       .  A
C504        C505   1.507       .  S
C505        H509   1.111       .  S
C505        H510   1.104       .  S
C505        H511   1.104       .  S
C508        H512   1.110       .  S
C508        H513   1.106       .  S
C508        H514   1.111       .  S
C515        C516   1.422       .  A
C515        C520   1.400       .  A
C515        H522   1.068       .  S
C517        C518   1.409       .  A
C517        C524   1.522       .  S
C518        H523   1.085       .  S
C519        C520   1.405       .  A
C520        C521   1.511       .  S
C521        H525   1.109       .  S
C521        H526   1.107       .  S
C521        H527   1.110       .  S
C524        H528   1.089       .  S
C524        H529   1.112       .  S
C524        H530   1.111       .  S
C531        C532   1.427       .  A
C531        C536   1.396       .  A
C531        H538   1.077       .  S
C532        C533   1.433       .  A
C533        C534   1.408       .  A
C533        C540   1.509       .  S
C534        C535   1.408       .  A
C534        H539   1.084       .  S
C535        C536   1.402       .  A
C536        C537   1.510       .  S
C537        H541   1.110       .  S
C537        H542   1.111       .  S
C537        H543   1.106       .  S
C540        H544   1.111       .  S
C540        H545   1.099       .  S
C540        H546   1.109       .  S
C547        C548   1.397       .  A
C547        C552   1.406       .  A
C547        H554   1.084       .  S
C548        C549   1.408       .  A
C549        C550   1.397       .  A
C549        C556   1.509       .  S
C550        C551   1.408       .  A
C550        H555   1.073       .  S
C551        C552   1.431       .  A
C552        C553   1.509       .  S
C553        H557   1.111       .  S
C553        H558   1.106       .  S
C553        H559   1.110       .  S
C556        H560   1.110       .  S
C556        H561   1.110       .  S
C556        H562   1.110       .  S
C563        C564   1.413       .  A
C563        C568   1.404       .  A
C563        H570   1.080       .  S
C564        C565   1.443       .  A
C565        C566   1.401       .  A
C566        C567   1.392       .  A
C566        H571   1.085       .  S
C567        C568   1.416       .  A
C568        C569   1.507       .  S
C569        H573   1.111       .  S
C569        H574   1.106       .  S
C569        H575   1.110       .  S
C572        H576   1.096       .  S
C572        H577   1.110       .  S
C572        H578   1.111   1_655  S
C579        C580   1.428       .  A
C579        C584   1.387       .  A
C580        C581   1.431       .  A
C581        C582   1.411       .  A
C581        C588   1.501       .  S
C582        C583   1.409       .  A
C582        H587   1.083       .  S
C583        C584   1.401       .  A
C584        C585   1.511       .  S
C585        H590   1.111       .  S
C585        H591   1.111       .  S
C588        H592   1.110       .  S
C588        H593   1.090       .  S
C588        H594   1.111       .  S
C595        C596   1.401       .  A
C595        C600   1.394       .  A
C595        C781   1.493       .  S
C596        C597   1.393       .  A
C596        H601   1.082       .  S
C597        C598   1.409       .  A
C597        C633   1.467       .  S
C598        C599   1.413       .  A
C598        H602   1.083       .  S
C599        C600   1.412       .  A
C599        C638   1.493       .  S
C600        H603   1.082       .  S
C604        C605   1.391       .  A
C604        C609   1.398       .  A
C604        C765   1.487       .  S
C605        C606   1.413       .  A
C605        H610   1.081       .  S
C606        C607   1.415       .  A
C606        C615   1.503       .  S
C607        C608   1.416       .  A
C607        H611   1.083       .  S
C608        C609   1.401       .  A
C608        C635   1.472       .  S
C609        H612   1.083       .  S
C613        C614   1.386       .  A
C613        C618   1.392       .  A
C613        C746   1.472       .  S
C614        C615   1.408       .  A
C614        H619   1.079       .  S
C615        C616   1.418       .  A
C616        C617   1.418       .  A
C616        H620   1.083       .  S
C617        C618   1.401       .  A
C617        C632   1.471       .  S
C618        H621   1.083       .  S
O622       Ni630   1.921       .  S
O622        C632   1.280       .  A
O623        C633   1.282       .  A
O624       Ni630   1.925       .  S
O624        C634   1.280       .  A
O625        C635   1.282       .  A
O626        C635   1.280       .  A
O627       Ni631   1.927       .  S
O627        C634   1.283       .  A
O628        C633   1.279       .  A
O629       Ni631   1.924       .  S
O629        C632   1.282       .  A
Ni630      Ni631   2.391       .  S
C634        C640   1.475       .  S
C636        C637   1.389       .  A
C636        C641   1.403       .  A
C636        C733   1.486       .  S
C637        C638   1.407       .  A
C637        H642   1.084       .  S
C638        C639   1.413       .  A
C639        C640   1.413       .  A
C639        H643   1.083       .  S
C640        C641   1.403       .  A
C641        H644   1.082       .  S
C645        C701   1.574       .  S
C645        C714   1.585       .  S
C645        C730   1.584       .  S
C646        C669   1.595       .  S
C646        C682   1.553       .  S
C646        C749   1.579       .  S
C647        C648   1.400       .  A
C647        C652   1.406       .  A
C647        C698   1.489       .  S
C648        H653   1.080   1_556  S
C649        C650   1.404       .  A
C649        C717   1.498       .  S
C650        H654   1.074   1_545  S
C651        C652   1.415   1_565  A
C651        C658   1.519       .  S
C652        H655   1.077   1_645  S
C656        C657   1.396       .  A
C656        C661   1.395       .  A
C656        C685   1.472       .  S
C657        H662   1.077       .  S
C658        C659   1.416       .  A
C659        C660   1.415       .  A
C659        H663   1.074   1_655  S
C660        C666   1.505       .  S
C661        H664   1.082       .  S
C665        C666   1.399       .  A
C665        C670   1.407       .  A
C665        H672   1.082       .  S
C666        C667   1.413       .  A
C667        C668   1.403       .  A
C667        C674   1.509   1_655  S
C668        C669   1.424       .  A
C668        H673   1.083       .  S
C669        C670   1.448       .  A
C671        H675   1.111       .  S
C671        H677   1.104       .  S
C674        H678   1.110   1_455  S
C674        H679   1.107       .  S
C674        H680   1.110       .  S
C681        C686   1.395       .  A
C681        H688   1.083       .  S
C682        C683   1.435       .  A
C683        C684   1.406       .  A
C683        C690   1.511       .  S
C684        C685   1.397       .  A
C684        H689   1.085       .  S
C686        C687   1.509       .  S
C687        H691   1.111       .  S
C687        H692   1.110       .  S
C687        H693   1.110       .  S
C690        H694   1.111       .  S
C690        H695   1.104       .  S
C690        H696   1.110       .  S
C697        C698   1.395       .  A
C697        C702   1.402       .  A
C697        H704   1.085       .  S
C699        C700   1.408       .  A
C699        C706   1.508       .  S
C700        H705   1.074       .  S
C701        C702   1.438       .  A
C702        C703   1.507       .  S
C703        H707   1.111       .  S
C703        H708   1.104       .  S
C703        H709   1.104       .  S
C706        H710   1.110       .  S
C706        H711   1.106       .  S
C706        H712   1.111       .  S
C713        C714   1.422       .  A
C713        C718   1.400       .  A
C713        H720   1.068       .  S
C715        C716   1.409       .  A
C715        C722   1.522       .  S
C716        H721   1.085       .  S
C717        C718   1.405       .  A
C718        C719   1.511       .  S
C719        H723   1.109       .  S
C719        H724   1.107       .  S
C719        H725   1.110       .  S
C722        H726   1.089       .  S
C722        H727   1.112       .  S
C722        H728   1.111       .  S
C729        C730   1.427       .  A
C729        C734   1.396       .  A
C729        H736   1.077       .  S
C730        C731   1.433       .  A
C731        C732   1.408       .  A
C731        C738   1.509       .  S
C732        C733   1.408       .  A
C732        H737   1.084       .  S
C733        C734   1.402       .  A
C734        C735   1.510       .  S
C735        H739   1.110       .  S
C735        H740   1.111       .  S
C735        H741   1.106       .  S
C738        H742   1.111       .  S
C738        H743   1.099       .  S
C738        H744   1.109       .  S
C745        C746   1.397       .  A
C745        C750   1.406       .  A
C745        H752   1.084       .  S
C746        C747   1.408       .  A
C747        C748   1.397       .  A
C747        C754   1.509       .  S
C748        C749   1.408       .  A
C748        H753   1.073       .  S
C749        C750   1.431       .  A
C750        C751   1.509       .  S
C751        H755   1.111       .  S
C751        H756   1.106       .  S
C751        H757   1.110       .  S
C754        H758   1.110       .  S
C754        H759   1.110       .  S
C754        H760   1.110       .  S
C761        C762   1.413       .  A
C761        C766   1.404       .  A
C761        H768   1.080       .  S
C762        C763   1.443       .  A
C763        C764   1.401       .  A
C764        C765   1.392       .  A
C764        H769   1.085       .  S
C765        C766   1.416       .  A
C766        C767   1.507       .  S
C767        H771   1.111       .  S
C767        H772   1.106       .  S
C767        H773   1.110       .  S
C770        H774   1.096       .  S
C770        H775   1.110       .  S
C770        H776   1.111   1_655  S
C777        C778   1.428       .  A
C777        C782   1.387       .  A
C778        C779   1.431       .  A
C779        C780   1.411       .  A
C779        C786   1.501       .  S
C780        C781   1.409       .  A
C780        H785   1.083       .  S
C781        C782   1.401       .  A
C782        C783   1.511       .  S
C783        H788   1.111       .  S
C783        H789   1.111       .  S
C786        H790   1.110       .  S
C786        H791   1.090       .  S
C786        H792   1.111       .  S
