geometry optimzed in LAMMPS
_audit_creation_date              2020-12-01 
_audit_creation_method            'lammps2cif' 
_symmetry_space_group_name_H-M    'P1' 
_symmetry_Int_Tables_number       1 
_symmetry_cell_setting            triclinic 
loop_ 
_symmetry_equiv_pos_as_xyz 
  x,y,z 
_cell_length_a                    24.33792751 
_cell_length_b                    24.065392504089647 
_cell_length_c                    43.340149752109305 
_cell_angle_alpha                 91.01083263263526 
_cell_angle_beta                  90.05677100708007 
_cell_angle_gamma                 90.16928031221215 
loop_ 
_atom_site_label 
_atom_site_type_symbol 
_atom_site_fract_x 
_atom_site_fract_y 
_atom_site_fract_z 
_atom_site_charge 
C1          C  0.35259437  0.85563668  0.28641635     0.81100
N2          N  0.40625180  0.86082496  0.29615749    -0.77200
C3          C  0.43913329  0.90006034  0.28317552     0.83500
N4          N  0.41721362  0.93277873  0.26127793    -0.77200
C5          C  0.36756099  0.92292142  0.24849362     0.83600
N6          N  0.33514424  0.88353573  0.26105137    -0.78900
C7          C  0.58161642  0.84229919  0.28087422     0.81100
N8          N  0.59773588  0.86680040  0.25416694    -0.77200
C9          C  0.56780663  0.90878117  0.24251131     0.83500
N10         N  0.52169912  0.92446547  0.25738020    -0.77200
C11         C  0.50033318  0.89592851  0.28116881     0.83600
N12         N  0.53079223  0.85403504  0.29331102    -0.78900
C13         C  0.57384253  0.98770426  0.17130584     0.81100
N14         N  0.52272433  0.97438311  0.16065909    -0.77200
C15         C  0.49374637  0.93261904  0.17352172     0.83500
N16         N  0.51765834  0.90350594  0.19625732    -0.77200
C17         C  0.56591000  0.91937908  0.20929320     0.83600
N18         N  0.59394345  0.96263890  0.19701226    -0.78900
C19         C  0.35982510  0.00039050  0.17633743     0.81100
N20         N  0.34132507  0.97889241  0.20346023    -0.77200
C21         C  0.36650073  0.93345569  0.21518362     0.83500
N22         N  0.41048038  0.91189706  0.20015368    -0.77200
C23         C  0.43325752  0.93669632  0.17551531     0.83600
N24         N  0.40714006  0.98089060  0.16339389    -0.78900
C25         C  0.36069495  0.38535517  0.18403804     0.81100
N26         N  0.34040220  0.40174247  0.21218761    -0.77200
C27         C  0.36794001  0.44052518  0.22944204     0.83500
N28         N  0.41613657  0.46051950  0.21863914    -0.77200
C29         C  0.44025339  0.43943712  0.19288031     0.83600
N30         N  0.41170587  0.40221793  0.17529524    -0.78900
C31         C  0.57482137  0.37335187  0.18775255     0.81100
N32         N  0.52728680  0.39612691  0.17727345    -0.77200
C33         C  0.50080021  0.43551709  0.19431941     0.83500
N34         N  0.52338891  0.45240501  0.22142053    -0.77200
C35         C  0.56754737  0.42695124  0.23372968     0.83600
N36         N  0.59300347  0.38619202  0.21695391    -0.78900
C37         C  0.35721240  0.49448412  0.30883026     0.81100
N38         N  0.33937947  0.48014612  0.27979268    -0.77200
C39         C  0.36598003  0.43987840  0.26334491     0.83500
N40         N  0.41081249  0.41610163  0.27589576    -0.77200
C41         C  0.43317657  0.43458608  0.30277062     0.83600
N42         N  0.40572913  0.47387283  0.31946577    -0.78900
C43         C  0.57471210  0.48349087  0.31242899     0.81100
N44         N  0.59451132  0.46521995  0.28450017    -0.77200
C45         C  0.56617764  0.42652727  0.26768170     0.83500
N46         N  0.51766309  0.40807422  0.27881133    -0.77200
C47         C  0.49387782  0.43089607  0.30425567     0.83600
N48         N  0.52311783  0.46847418  0.32136754    -0.78900
C49         C  0.83849467  0.87243368  0.44238908     0.81100
N50         N  0.88710240  0.88591882  0.42835249    -0.77200
C51         C  0.91987745  0.92621518  0.44088900     0.83500
N52         N  0.90289618  0.95240216  0.46702382    -0.77200
C53         C  0.85892230  0.93511901  0.48331235     0.83600
N54         N  0.82667392  0.89417599  0.47099488    -0.78900
C55         C  0.06010853  0.87327396  0.42620467     0.81100
N56         N  0.00666280  0.88624282  0.41961472    -0.77200
C57         C  0.98050177  0.92635582  0.43648430     0.83500
N58         N  0.00876753  0.95277886  0.45931158    -0.77200
C59         C  0.05902271  0.93612579  0.46859985     0.83600
N60         N  0.08472088  0.89554226  0.45202647    -0.78900
C61         C  0.86539829  0.99505398  0.06613810     0.81100
N62         N  0.91291002  0.97733624  0.07934932    -0.77200
C63         C  0.94117908  0.93415007  0.06683918     0.83500
N64         N  0.92049439  0.90854707  0.04137552    -0.77200
C65         C  0.87645565  0.92841388  0.02598856     0.83600
N66         N  0.84893589  0.97294717  0.03822954    -0.78900
C67         C  0.08007708  0.98918779  0.07412636     0.81100
N68         N  0.02862684  0.97513384  0.08359957    -0.77200
C69         C  0.00165095  0.93176549  0.07009901     0.83500
N70         N  0.02792858  0.90179302  0.04796837    -0.77200
C71         C  0.07678266  0.91805383  0.03611033     0.83600
N72         N  0.10268473  0.96286920  0.04901483    -0.78900
C73         C  0.85724294  0.50994212  0.44173722     0.81100
N74         N  0.90901743  0.49939174  0.43072063    -0.77200
C75         C  0.93891535  0.45751745  0.44295321     0.83500
N76         N  0.91604785  0.42715661  0.46559889    -0.77200
C77         C  0.86833509  0.44127089  0.47946727     0.83600
N78         N  0.83882001  0.48366774  0.46757485    -0.78900
C79         C  0.08227032  0.50973047  0.44292938     0.81100
N80         N  0.03065895  0.49942705  0.43135848    -0.77200
C81         C  0.99997651  0.45749779  0.44320386     0.83500
N82         N  0.02183968  0.42701141  0.46601136    -0.77200
C83         C  0.06918675  0.44098825  0.48035137     0.83600
N84         N  0.09958295  0.48321587  0.46887061    -0.78900
C85         C  0.85719632  0.37936262  0.06649831     0.81100
N86         N  0.90783289  0.39834377  0.07500633    -0.77200
C87         C  0.93429101  0.43639155  0.05764288     0.83500
N88         N  0.90841345  0.45617875  0.03250215    -0.77200
C89         C  0.86059981  0.43420777  0.02199883     0.83600
N90         N  0.83527935  0.39465567  0.03887559    -0.78900
C91         C  0.07053924  0.37441334  0.06019477     0.81100
N92         N  0.02311425  0.39647527  0.07155586    -0.77200
C93         C  0.99474525  0.43427491  0.05517884     0.83500
N94         N  0.01536064  0.45036674  0.02777497    -0.77200
C95         C  0.05942710  0.42541298  0.01459798     0.83600
N96         N  0.08682964  0.38613970  0.03075720    -0.78900
O97         O  0.13310559  0.64233873  0.36412125    -0.73600
O98         O  0.23423016  0.74679431  0.32895482    -0.73600
O99         O  0.21780616  0.63581024  0.32353909    -0.73700
O100        O  0.14835974  0.75353543  0.36942109    -0.73700
O101        O  0.20697414  0.74123851  0.40828815    -0.73600
O102        O  0.27591406  0.62267983  0.36255391    -0.73600
O103        O  0.29228111  0.73355187  0.36796166    -0.73600
O104        O  0.19134238  0.63000746  0.40314149    -0.73700
Ni105      Ni  0.18130547  0.69520991  0.34511526     1.25400
Ni106      Ni  0.24364469  0.68146739  0.38687866     1.25400
C107        C  0.14574291  0.61897459  0.38950430     0.88600
C108        C  0.28041740  0.75649793  0.34241542     0.88500
C109        C  0.25828138  0.60995085  0.33543044     0.88600
C110        C  0.16574386  0.76627415  0.39655756     0.88700
O111        O  0.64714666  0.72724001  0.36395118    -0.73600
O112        O  0.75028380  0.62853400  0.40035466    -0.73600
O113        O  0.73734837  0.74028127  0.40082807    -0.73700
O114        O  0.66172890  0.61560166  0.36274420    -0.73700
O115        O  0.71686571  0.62202421  0.32186087    -0.73600
O116        O  0.79017953  0.74638857  0.35899014    -0.73600
O117        O  0.80515415  0.63500454  0.35939854    -0.73600
O118        O  0.70020088  0.73305632  0.32220337    -0.73700
Ni119      Ni  0.69719677  0.67774982  0.38345281     1.25400
Ni120      Ni  0.75498316  0.68446054  0.33914708     1.25400
C121        C  0.65607025  0.74578439  0.33696219     0.88600
C122        C  0.79451608  0.61537187  0.38608041     0.88500
C123        C  0.77689580  0.76326289  0.38608311     0.88600
C124        C  0.67728253  0.59844329  0.33590926     0.88700
O125        O  0.21747088  0.13999328  0.16489404    -0.73600
O126        O  0.14651193  0.24722472  0.11389724    -0.73600
O127        O  0.14897794  0.13450151  0.11631128    -0.73700
O128        O  0.21472663  0.25280281  0.16316293    -0.73700
O129        O  0.28601286  0.25255052  0.13084478    -0.73600
O130        O  0.22026361  0.13283018  0.08401034    -0.73600
O131        O  0.21776578  0.24554241  0.08156330    -0.73600
O132        O  0.28871725  0.13977891  0.13257253    -0.73700
Ni133      Ni  0.17931668  0.19381773  0.14067609     1.25400
Ni134      Ni  0.25578478  0.19279638  0.10613038     1.25400
C135        C  0.26433281  0.12107052  0.15644602     0.88600
C136        C  0.17056907  0.26409247  0.08940717     0.88500
C137        C  0.17425373  0.11306159  0.09311051     0.88600
C138        C  0.26113765  0.27227308  0.15472434     0.88700
O139        O  0.71569696  0.24296008  0.08418408    -0.73600
O140        O  0.64827389  0.12750524  0.12982202    -0.73600
O141        O  0.64705245  0.24046383  0.13301763    -0.73700
O142        O  0.71750907  0.13006762  0.08142282    -0.73700
O143        O  0.78872184  0.13069065  0.11381461    -0.73600
O144        O  0.71779447  0.23861060  0.16573749    -0.73600
O145        O  0.71946772  0.12567751  0.16221244    -0.73600
O146        O  0.78650189  0.24370514  0.11693611    -0.73700
Ni147      Ni  0.67955552  0.18532184  0.10600000     1.25400
Ni148      Ni  0.75571362  0.18471067  0.14080993     1.25400
C149        C  0.76180713  0.26285167  0.09321288     0.88600
C150        C  0.67300332  0.10657391  0.15295513     0.88500
C151        C  0.67113907  0.25796355  0.15773539     0.88600
C152        C  0.76458649  0.11155404  0.08954057     0.88700
C153        C  0.14420024  0.30582487  0.06977554    -0.15600
C154        C  0.09840163  0.33223356  0.07877552    -0.30800
H155        H  0.16338939  0.31572265  0.04791615     0.13400
H156        H  0.08016939  0.32271145  0.10095957     0.14000
C157        C  0.83158316  0.33536305  0.08486129    -0.15600
C158        C  0.78596130  0.30854261  0.07560462    -0.29600
H159        H  0.85186118  0.32363107  0.10612075     0.13400
H160        H  0.76543674  0.32033174  0.05443494     0.14000
C161        C  0.11834666  0.55254906  0.42952914    -0.15600
C162        C  0.10708324  0.57849803  0.40300834    -0.30800
H163        H  0.15661822  0.56161306  0.44156225     0.13400
H164        H  0.06920917  0.56924107  0.39063963     0.14000
C165        C  0.83341977  0.57636430  0.40046001    -0.15600
C166        C  0.82212081  0.55257800  0.42766319    -0.30800
H167        H  0.87080136  0.56568311  0.38806584     0.13400
H168        H  0.78409256  0.56272306  0.43957554     0.14000
C169        C  0.10613848  0.03827232  0.08862467    -0.15600
C170        C  0.15061580  0.06386547  0.07718278    -0.30800
H171        H  0.08662675  0.05478891  0.10937386     0.13400
H172        H  0.17052362  0.04787919  0.05644723     0.14000
C173        C  0.83721665  0.04238850  0.08131118    -0.15600
C174        C  0.79091535  0.06636543  0.07118675    -0.30800
H175        H  0.85576517  0.05760648  0.10267490     0.13400
H176        H  0.77122152  0.05137441  0.05012817     0.14000
C177        C  0.08860318  0.83060750  0.40721144    -0.15600
C178        C  0.13799487  0.81002674  0.41502256    -0.30800
H179        H  0.06791973  0.81508815  0.38655377     0.13400
H180        H  0.15798513  0.82417056  0.43617432     0.14000
C181        C  0.80202028  0.82907825  0.42877753    -0.15600
C182        C  0.80964055  0.80904407  0.39997599    -0.30800
H183        H  0.76861874  0.81319754  0.44274196     0.13400
H184        H  0.84268567  0.82570450  0.38601607     0.14000
C185        C  0.64982669  0.55137155  0.31996476    -0.15600
C186        C  0.60428629  0.52673549  0.33062654    -0.30800
H187        H  0.66670548  0.53824976  0.29781371     0.13400
H188        H  0.58663351  0.54054803  0.35245690     0.14000
C189        C  0.28473179  0.56518240  0.31714335    -0.15600
C190        C  0.32893196  0.53774006  0.32740001    -0.30800
H191        H  0.26794653  0.55539824  0.29444558     0.13400
H192        H  0.34588840  0.54806566  0.34999584     0.14000
C193        C  0.64573924  0.30147077  0.17749179    -0.15600
C194        C  0.60094295  0.32939776  0.16863831    -0.30800
H195        H  0.66517423  0.31156073  0.19947225     0.13400
H196        H  0.58228876  0.31968216  0.14638554     0.14000
C197        C  0.33304422  0.34229975  0.16498798    -0.15600
C198        C  0.28589895  0.31781678  0.17327262    -0.30800
H199        H  0.35336279  0.32913022  0.14377782     0.13400
H200        H  0.26519400  0.33088761  0.19437114     0.14000
C201        C  0.28974658  0.07537854  0.17366863    -0.15600
C202        C  0.33387372  0.04882390  0.16216351    -0.30800
H203        H  0.27057187  0.06162205  0.19483616     0.13400
H204        H  0.35201826  0.06266151  0.14070746     0.14000
C205        C  0.64782571  0.05895899  0.16867879    -0.15600
C206        C  0.60219198  0.03482718  0.15715924    -0.30800
H207        H  0.66716746  0.04319695  0.18934470     0.13400
H208        H  0.58343644  0.05108921  0.13642723     0.14000
C209        C  0.61917861  0.80116691  0.29436039    -0.15600
C210        C  0.61435485  0.78251107  0.32318447    -0.30800
H211        H  0.65452864  0.78878539  0.28058666     0.13400
H212        H  0.57961114  0.79532905  0.33730795     0.14000
C213        C  0.31359171  0.81656767  0.30071759    -0.15600
C214        C  0.32148545  0.79399516  0.32845222    -0.30800
H215        H  0.27553118  0.80808031  0.28834041     0.13400
H216        H  0.35903385  0.80294243  0.34120715     0.14000
C217        C  0.34660404  0.84115389  0.80151151     0.81100
N218        N  0.39762025  0.85130466  0.81415145    -0.77200
C219        C  0.42780668  0.89536940  0.80434568     0.83500
N220        N  0.40595430  0.92808262  0.78253908    -0.77200
C221        C  0.35999162  0.91428616  0.76680190     0.83600
N222        N  0.33003969  0.87001591  0.77622610    -0.78900
C223        C  0.57443345  0.85143915  0.80915030     0.81100
N224        N  0.59297533  0.87814632  0.78345298    -0.77200
C225        C  0.56117755  0.91765559  0.77037943     0.83500
N226        N  0.51147264  0.92829108  0.78281176    -0.77200
C227        C  0.48903672  0.89724229  0.80521489     0.83600
N228        N  0.52093231  0.85815937  0.81865818    -0.78900
C229        C  0.58004937  0.00308915  0.70153138     0.81100
N230        N  0.52807613  0.99537984  0.68960948    -0.77200
C231        C  0.49613562  0.95317472  0.70028825     0.83500
N232        N  0.51723763  0.92003174  0.72214630    -0.77200
C233        C  0.56425639  0.93198071  0.73737163     0.83600
N234        N  0.59595588  0.97429722  0.72704327    -0.78900
C235        C  0.35130249  0.00318125  0.69903744     0.81100
N236        N  0.33247708  0.97333258  0.72342479    -0.77200
C237        C  0.36256891  0.93063884  0.73424237     0.83500
N238        N  0.41161394  0.91982979  0.72095765    -0.77200
C239        C  0.43472597  0.95324519  0.69972297     0.83600
N240        N  0.40405361  0.99564106  0.68846534    -0.78900
C241        C  0.34966684  0.35213411  0.71051340     0.81100
N242        N  0.33972141  0.36593575  0.74079230    -0.77200
C243        C  0.37210779  0.40412768  0.75544307     0.83500
N244        N  0.41425862  0.42659528  0.73986354    -0.77200
C245        C  0.42952105  0.40832325  0.71154761     0.83600
N246        N  0.39679991  0.37051625  0.69655700    -0.78900
C247        C  0.57040240  0.36421023  0.69334948     0.81100
N248        N  0.51645089  0.37587866  0.68763209    -0.77200
C249        C  0.48946015  0.41331402  0.70579594     0.83500
N250        N  0.51766609  0.43916353  0.72891006    -0.77200
C251        C  0.56878950  0.42364149  0.73727803     0.83600
N252        N  0.59519711  0.38507208  0.71950073    -0.78900
C253        C  0.37899852  0.46623194  0.83263433     0.81100
N254        N  0.35420545  0.44444370  0.80675462    -0.77200
C255        C  0.38034346  0.40568066  0.78911327     0.83500
N256        N  0.43163175  0.39028114  0.79744683    -0.77200
C257        C  0.45967600  0.41652230  0.82048606     0.83600
N258        N  0.43267281  0.45428562  0.83848619    -0.78900
C259        C  0.59233334  0.48806981  0.81363740     0.81100
N260        N  0.60517773  0.47088810  0.78424682    -0.77200
C261        C  0.57756889  0.42739994  0.77093841     0.83500
N262        N  0.53683096  0.40299435  0.78708790    -0.77200
C263        C  0.51923954  0.42336110  0.81464182     0.83600
N264        N  0.54754355  0.46609286  0.82801709    -0.78900
C265        C  0.87005080  0.84923548  0.95300779     0.81100
N266        N  0.92420618  0.85589422  0.94499578    -0.77200
C267        C  0.95492513  0.89604755  0.95936317     0.83500
N268        N  0.93048018  0.92847229  0.98114543    -0.77200
C269        C  0.87996935  0.91760456  0.99241108     0.83600
N270        N  0.84948379  0.87720723  0.97827183    -0.78900
C271        C  0.09761660  0.83993022  0.96362649     0.81100
N272        N  0.04745211  0.85129804  0.95047353    -0.77200
C273        C  0.01590576  0.89297485  0.96264959     0.83500
N274        N  0.03542821  0.92179179  0.98734267    -0.77200
C275        C  0.08079310  0.90658571  0.00283648     0.83600
N276        N  0.11195062  0.86472702  0.99108931    -0.78900
C277        C  0.86640488  0.00246353  0.56001426     0.81100
N278        N  0.91974813  0.98900819  0.56643515    -0.77200
C279        C  0.94572296  0.94951696  0.54912716     0.83500
N280        N  0.91738173  0.92407865  0.52600476    -0.77200
C281        C  0.86722141  0.94122394  0.51689916     0.83600
N282        N  0.84161634  0.98141668  0.53389498    -0.78900
C283        C  0.08829614  0.00231356  0.54397065     0.81100
N284        N  0.03956224  0.98888967  0.55790547    -0.77200
C285        C  0.00626968  0.94955192  0.54477513     0.83500
N286        N  0.02281032  0.92442629  0.51827953    -0.77200
C287        C  0.06680968  0.94193896  0.50219985     0.83600
N288        N  0.09965327  0.98182729  0.51501791    -0.78900
C289        C  0.84636938  0.49010871  0.94479257     0.81100
N290        N  0.89382402  0.46919798  0.93263765    -0.77200
C291        C  0.92160959  0.42887813  0.94762070     0.83500
N292        N  0.90052853  0.40964634  0.97430389    -0.77200
C293        C  0.85663980  0.43349145  0.98824636     0.83600
N294        N  0.82987335  0.47462311  0.97351605    -0.78900
C295        C  0.06208097  0.47802300  0.93595547     0.81100
N296        N  0.01022439  0.46215022  0.92772351    -0.77200
C297        C  0.98214772  0.42533345  0.94516836     0.83500
N298        N  0.00735861  0.40400777  0.97017143    -0.77200
C299        C  0.05624248  0.42342513  0.98065981     0.83600
N300        N  0.08341729  0.46142120  0.96354827    -0.78900
C301        C  0.85257665  0.36059156  0.55060173     0.81100
N302        N  0.90506794  0.36861317  0.56169822    -0.77200
C303        C  0.93713185  0.40928558  0.54946349     0.83500
N304        N  0.91578440  0.44048637  0.52678206    -0.77200
C305        C  0.86772778  0.42839667  0.51272478     0.83600
N306        N  0.83588114  0.38760235  0.52462354    -0.78900
C307        C  0.08130066  0.35780596  0.55016024     0.81100
N308        N  0.02916967  0.36679266  0.56136266    -0.77200
C309        C  0.99851444  0.40882924  0.54964857     0.83500
N310        N  0.02107663  0.44052035  0.52745312    -0.77200
C311        C  0.06892835  0.42768999  0.51341531     0.83600
N312        N  0.09905397  0.38540107  0.52470259    -0.78900
O313        O  0.15108694  0.60360881  0.88336586    -0.73600
O314        O  0.23959541  0.71302595  0.84145946    -0.73600
O315        O  0.23544679  0.60032037  0.84309939    -0.73700
O316        O  0.15214653  0.71610044  0.88070181    -0.73700
O317        O  0.20947519  0.71901378  0.92089018    -0.73600
O318        O  0.29477949  0.60150390  0.88240115    -0.73600
O319        O  0.29703204  0.71432122  0.88159704    -0.73600
O320        O  0.21047551  0.60681427  0.92262261    -0.73700
Ni321      Ni  0.19253130  0.65832757  0.86071551     1.25400
Ni322      Ni  0.25508382  0.66070139  0.90326080     1.25400
C323        C  0.16717861  0.58704360  0.90994484     0.88600
C324        C  0.28343697  0.73122696  0.85490969     0.88500
C325        C  0.27782823  0.58106626  0.85647604     0.88600
C326        C  0.16585809  0.73585095  0.90711839     0.88700
O327        O  0.62010787  0.73736958  0.89610592    -0.73600
O328        O  0.70260511  0.62672940  0.93786643    -0.73600
O329        O  0.70384047  0.73923941  0.93791707    -0.73700
O330        O  0.62042609  0.62481448  0.89598303    -0.73700
O331        O  0.68136820  0.62409231  0.85757293    -0.73600
O332        O  0.76526881  0.73714088  0.89977294    -0.73600
O333        O  0.76351592  0.62464255  0.89941670    -0.73600
O334        O  0.68109255  0.73680760  0.85771883    -0.73700
Ni335      Ni  0.65957574  0.68228026  0.91832367     1.25400
Ni336      Ni  0.72500316  0.68088491  0.87725558     1.25400
C337        C  0.63613853  0.75446314  0.86981694     0.88600
C338        C  0.74597116  0.60679555  0.92532989     0.88500
C339        C  0.74908589  0.75598873  0.92606021     0.88600
C340        C  0.63766317  0.60512653  0.87007200     0.88700
O341        O  0.24197565  0.12568397  0.66261486    -0.73600
O342        O  0.14304244  0.23473084  0.63101339    -0.73600
O343        O  0.14765250  0.12258529  0.62883090    -0.73700
O344        O  0.23759455  0.23760024  0.66502274    -0.73700
O345        O  0.28686550  0.24156762  0.62177542    -0.73600
O346        O  0.19723187  0.12556868  0.58564527    -0.73600
O347        O  0.19232084  0.23775930  0.58773100    -0.73600
O348        O  0.29172329  0.12939107  0.61951490    -0.73700
Ni349      Ni  0.19082179  0.18006230  0.64839055     1.25400
Ni350      Ni  0.24376566  0.18374424  0.60211079     1.25400
C351        C  0.28351053  0.11014652  0.64647295     0.88600
C352        C  0.15090614  0.25352004  0.60390653     0.88500
C353        C  0.15717429  0.10555905  0.60119642     0.88600
C354        C  0.27781044  0.25766935  0.64966268     0.88700
O355        O  0.73784097  0.24428001  0.59117154    -0.73600
O356        O  0.63743920  0.13738332  0.62473985    -0.73600
O357        O  0.65450082  0.24781120  0.63314306    -0.73700
O358        O  0.72072213  0.13368513  0.58291569    -0.73700
O359        O  0.78050824  0.11688315  0.62062955    -0.73600
O360        O  0.71434167  0.23100251  0.67082704    -0.73600
O361        O  0.69678219  0.12031391  0.66259346    -0.73600
O362        O  0.79749162  0.22732202  0.62888425    -0.73700
Ni363      Ni  0.68552881  0.19141848  0.60666934     1.25400
Ni364      Ni  0.74937088  0.17321332  0.64708503     1.25400
C365        C  0.78446111  0.25304074  0.60427649     0.88600
C366        C  0.65022677  0.11162663  0.64934416     0.88500
C367        C  0.67324383  0.25787070  0.66033846     0.88600
C368        C  0.76202827  0.10705484  0.59335973     0.88700
C369        C  0.11119914  0.29369135  0.59124855    -0.15600
C370        C  0.11776139  0.31512745  0.56307576    -0.30800
H371        H  0.07656638  0.30640605  0.60547826     0.13400
H372        H  0.15334085  0.30327744  0.54935771     0.14000
C373        C  0.81440916  0.31965620  0.56444300    -0.15600
C374        C  0.82436684  0.29296594  0.59094684    -0.29600
H375        H  0.77569711  0.31232147  0.55252139     0.13400
H376        H  0.86277090  0.30030623  0.60316373     0.14000
C377        C  0.09090936  0.51967533  0.91714055    -0.15600
C378        C  0.13713809  0.54439625  0.92714828    -0.30800
H379        H  0.07309541  0.53117636  0.89516818     0.13400
H380        H  0.15426646  0.53314822  0.94934295     0.14000
C381        C  0.77504346  0.56211649  0.94125752    -0.15600
C382        C  0.81792370  0.53512897  0.92865363    -0.30800
H383        H  0.75985068  0.55051240  0.96382183     0.13400
H384        H  0.83295788  0.54661515  0.90603470     0.14000
C385        C  0.12620969  0.04366058  0.55819705    -0.15600
C386        C  0.12025017  0.06297086  0.58732008    -0.30800
H387        H  0.16029872  0.05823553  0.54430012     0.13400
H388        H  0.08661686  0.04786999  0.60138550     0.14000
C389        C  0.83832630  0.04382388  0.57999464    -0.15600
C390        C  0.78870526  0.06490569  0.57329128    -0.30800
H391        H  0.85967166  0.05783247  0.60076257     0.13400
H392        H  0.76789093  0.05246588  0.55207538     0.14000
C393        C  0.13526333  0.79792975  0.95005429    -0.15600
C394        C  0.12903394  0.77786371  0.92123343    -0.30800
H395        H  0.16996769  0.78456153  0.96383902     0.13400
H396        H  0.09463252  0.79185948  0.90740048     0.14000
C397        C  0.83562736  0.80827768  0.93576197    -0.15600
C398        C  0.78302996  0.79717797  0.94336354    -0.30800
H399        H  0.85416331  0.78679813  0.91614410     0.13400
H400        H  0.76470650  0.81754191  0.96339536     0.14000
C401        C  0.60672272  0.55925749  0.85492495    -0.15600
C402        C  0.62287232  0.53501541  0.82815577    -0.30800
H403        H  0.57002502  0.54452839  0.86649748     0.13400
H404        H  0.65930771  0.55007579  0.81645761     0.14000
C405        C  0.30564255  0.53434588  0.84084230    -0.15600
C406        C  0.35177092  0.51052550  0.85100584    -0.30800
H407        H  0.28718826  0.51966896  0.81934156     0.13400
H408        H  0.37131519  0.52570731  0.87208213     0.14000
C409        C  0.64716420  0.30057660  0.68028605    -0.15600
C410        C  0.59871330  0.32361748  0.67301928    -0.30800
H411        H  0.66724981  0.31161995  0.70194738     0.13400
H412        H  0.57793223  0.31095429  0.65182056     0.14000
C413        C  0.31167558  0.31285890  0.69456266    -0.15600
C414        C  0.31543386  0.29889527  0.66439731    -0.30800
H415        H  0.27903568  0.29499062  0.70834488     0.13400
H416        H  0.34786117  0.31662333  0.65041887     0.14000
C417        C  0.32290272  0.06962603  0.65896056    -0.15600
C418        C  0.31514691  0.04643986  0.68656618    -0.30800
H419        H  0.35816601  0.05785800  0.64496874     0.13400
H420        H  0.27885245  0.05714569  0.69997896     0.14000
C421        C  0.60997761  0.07162519  0.66224807    -0.15600
C422        C  0.61852206  0.04506045  0.68891650    -0.30800
H423        H  0.57238054  0.06380756  0.64933105     0.13400
H424        H  0.65642274  0.05269379  0.70159048     0.14000
C425        C  0.61143790  0.81239842  0.82500539    -0.15600
C426        C  0.60062610  0.79409510  0.85349277    -0.30800
H427        H  0.64909148  0.79988093  0.81340150     0.13400
H428        H  0.56352052  0.80781259  0.86526088     0.14000
C429        C  0.31029346  0.79679339  0.81349790    -0.15600
C430        C  0.32025312  0.77242760  0.84054076    -0.30800
H431        H  0.27322109  0.78620205  0.80067248     0.13400
H432        H  0.35676324  0.78433297  0.85355421     0.14000
loop_ 
_geom_bond_atom_site_label_1 
_geom_bond_atom_site_label_2 
_geom_bond_distance 
_geom_bond_site_symmetry_2 
_ccdc_geom_bond_type 
C1            N2   1.377       .  A
C1            N6   1.366       .  A
C1          C213   1.478       .  S
N2            C3   1.365       .  A
C3            N4   1.354       .  A
C3           C11   1.496       .  S
N4            C5   1.348       .  A
C5            N6   1.353       .  A
C5           C21   1.470       .  S
C7            N8   1.366       .  A
C7           N12   1.378       .  A
C7          C209   1.477       .  S
N8            C9   1.352       .  A
C9           N10   1.346       .  A
C9           C17   1.467       .  S
N10          C11   1.352       .  A
C11          N12   1.366       .  A
C13          N14   1.362       .  A
C13          N18   1.367       .  A
C13         C206   1.469   1_565  S
N14          C15   1.355       .  A
C15          N16   1.351       .  A
C15          C23   1.478       .  S
N16          C17   1.354       .  A
C17          N18   1.360       .  A
C19          N20   1.369   1_545  A
C19          N24   1.362   1_545  A
C19         C202   1.471       .  S
N20          C21   1.361       .  A
C21          N22   1.353       .  A
N22          C23   1.351       .  A
C23          N24   1.354       .  A
C25          N26   1.369       .  A
C25          N30   1.361       .  A
C25         C197   1.474       .  S
N26          C27   1.360       .  A
C27          N28   1.354       .  A
C27          C39   1.471       .  S
N28          C29   1.353       .  A
C29          N30   1.355       .  A
C29          C33   1.478       .  S
C31          N32   1.363       .  A
C31          N36   1.370       .  A
C31         C194   1.478       .  S
N32          C33   1.356       .  A
C33          N34   1.352       .  A
N34          C35   1.352       .  A
C35          N36   1.362       .  A
C35          C45   1.472       .  S
C37          N38   1.369       .  A
C37          N42   1.365       .  A
C37         C190   1.477       .  S
N38          C39   1.359       .  A
C39          N40   1.352       .  A
N40          C41   1.353       .  A
C41          N42   1.358       .  A
C41          C47   1.482       .  S
C43          N44   1.369       .  A
C43          N48   1.364       .  A
C43         C186   1.479       .  S
N44          C45   1.358       .  A
C45          N46   1.353       .  A
N46          C47   1.354       .  A
C47          N48   1.359       .  A
C49          N50   1.372       .  A
C49          N54   1.368       .  A
C49         C181   1.482       .  S
N50          C51   1.359       .  A
C51          N52   1.352       .  A
C51          C57   1.488       .  S
N52          C53   1.351       .  A
C53          N54   1.359       .  A
C53         C281   1.474       .  S
C55          N56   1.370       .  A
C55          N60   1.369       .  A
C55         C177   1.479       .  S
N56          C57   1.361   1_455  A
C57          N58   1.353   1_655  A
N58          C59   1.351       .  A
C59          N60   1.357       .  A
C59         C287   1.472       .  S
C61          N62   1.363       .  A
C61          N66   1.372       .  A
C61         C173   1.476   1_565  S
N62          C63   1.354       .  A
C63          N64   1.351       .  A
C63          C69   1.480   1_655  S
N64          C65   1.355       .  A
C65          N66   1.365       .  A
C65         C269   1.476   1_554  S
C67          N68   1.362       .  A
C67          N72   1.366       .  A
C67         C169   1.470   1_565  S
N68          C69   1.355       .  A
C69          N70   1.352       .  A
N70          C71   1.355       .  A
C71          N72   1.359       .  A
C71         C275   1.467       .  S
C73          N74   1.371       .  A
C73          N78   1.371       .  A
C73         C166   1.477       .  S
N74          C75   1.360       .  A
C75          N76   1.353       .  A
C75          C81   1.486       .  S
N76          C77   1.350       .  A
C77          N78   1.358       .  A
C77         C305   1.480       .  S
C79          N80   1.372       .  A
C79          N84   1.369       .  A
C79         C161   1.479       .  S
N80          C81   1.362   1_455  A
C81          N82   1.351   1_655  A
N82          C83   1.348       .  A
C83          N84   1.357       .  A
C83         C311   1.474       .  S
C85          N86   1.361       .  A
C85          N90   1.367       .  A
C85         C157   1.473       .  S
N86          C87   1.357       .  A
C87          N88   1.353       .  A
C87          C93   1.476       .  S
N88          C89   1.352       .  A
C89          N90   1.357       .  A
C89         C293   1.466   1_554  S
C91          N92   1.361       .  A
C91          N96   1.370       .  A
C91         C154   1.473       .  S
N92          C93   1.354   1_455  A
C93          N94   1.352   1_655  A
N94          C95   1.353       .  A
C95          N96   1.362       .  A
C95         C299   1.473   1_554  S
O97        Ni105   1.924       .  S
O97         C107   1.282       .  A
O98        Ni105   1.927       .  S
O98         C108   1.285       .  A
O99        Ni105   1.915       .  S
O99         C109   1.280       .  A
O100       Ni105   1.918       .  S
O100        C110   1.281       .  A
O101       Ni106   1.921       .  S
O101        C110   1.281       .  A
O102       Ni106   1.920       .  S
O102        C109   1.283       .  A
O103       Ni106   1.917       .  S
O103        C108   1.279       .  A
O104       Ni106   1.917       .  S
O104        C107   1.282       .  A
Ni105      Ni106   2.389       .  S
C107        C162   1.481       .  S
C108        C214   1.481       .  S
C109        C189   1.476       .  S
C110        C178   1.477       .  S
O111       Ni119   1.913       .  S
O111        C121   1.278       .  A
O112       Ni119   1.910       .  S
O112        C122   1.280       .  A
O113       Ni119   1.933       .  S
O113        C123   1.285       .  A
O114       Ni119   1.932       .  S
O114        C124   1.285       .  A
O115       Ni120   1.905       .  S
O115        C124   1.277       .  A
O116       Ni120   1.908       .  S
O116        C123   1.278       .  A
O117       Ni120   1.929       .  S
O117        C122   1.283       .  A
O118       Ni120   1.929       .  S
O118        C121   1.286       .  A
Ni119      Ni120   2.389       .  S
C121        C210   1.480       .  S
C122        C165   1.480       .  S
C123        C182   1.477       .  S
C124        C185   1.475       .  S
O125       Ni133   1.922       .  S
O125        C135   1.281       .  A
O126       Ni133   1.922       .  S
O126        C136   1.284       .  A
O127       Ni133   1.907       .  S
O127        C137   1.281       .  A
O128       Ni133   1.910       .  S
O128        C138   1.278       .  A
O129       Ni134   1.922       .  S
O129        C138   1.284       .  A
O130       Ni134   1.921       .  S
O130        C137   1.281       .  A
O131       Ni134   1.911       .  S
O131        C136   1.278       .  A
O132       Ni134   1.908       .  S
O132        C135   1.281       .  A
Ni133      Ni134   2.390       .  S
C135        C201   1.477       .  S
C136        C153   1.476       .  S
C137        C170   1.475       .  S
C138        C198   1.475       .  S
O139       Ni147   1.906       .  S
O139        C149   1.277       .  A
O140       Ni147   1.905       .  S
O140        C150   1.280       .  A
O141       Ni147   1.926       .  S
O141        C151   1.285       .  A
O142       Ni147   1.927       .  S
O142        C152   1.282       .  A
O143       Ni148   1.913       .  S
O143        C152   1.282       .  A
O144       Ni148   1.913       .  S
O144        C151   1.279       .  A
O145       Ni148   1.923       .  S
O145        C150   1.281       .  A
O146       Ni148   1.922       .  S
O146        C149   1.284       .  A
Ni147      Ni148   2.389       .  S
C149        C158   1.471       .  S
C150        C205   1.476       .  S
C151        C193   1.478       .  S
C152        C174   1.483       .  S
C153        C154   1.340       .  D
C153        H155   1.087       .  S
C154        H156   1.087       .  S
C157        C158   1.340       .  D
C157        H159   1.087       .  S
C158        H160   1.087       .  S
C161        C162   1.346       .  D
C161        H163   1.087       .  S
C162        H164   1.086       .  S
C165        C166   1.348       .  D
C165        H167   1.086       .  S
C166        H168   1.087       .  S
C169        C170   1.343       .  D
C169        H171   1.087       .  S
C170        H172   1.086       .  S
C173        C174   1.344       .  D
C173        H175   1.087       .  S
C174        H176   1.086       .  S
C177        C178   1.347       .  D
C177        H179   1.087       .  S
C178        H180   1.086       .  S
C181        C182   1.343       .  D
C181        H183   1.087       .  S
C182        H184   1.087       .  S
C185        C186   1.342       .  D
C185        H187   1.087       .  S
C186        H188   1.087       .  S
C189        C190   1.343       .  D
C189        H191   1.087       .  S
C190        H192   1.087       .  S
C193        C194   1.342       .  D
C193        H195   1.086       .  S
C194        H196   1.087       .  S
C197        C198   1.340       .  D
C197        H199   1.087       .  S
C198        H200   1.087       .  S
C201        C202   1.343       .  D
C201        H203   1.086       .  S
C202        H204   1.087       .  S
C205        C206   1.343       .  D
C205        H207   1.086       .  S
C206        H208   1.087       .  S
C209        C210   1.340       .  D
C209        H211   1.087       .  S
C210        H212   1.087       .  S
C213        C214   1.342       .  D
C213        H215   1.087       .  S
C214        H216   1.087       .  S
C217        N218   1.376       .  A
C217        N222   1.369       .  A
C217        C429   1.485       .  S
N218        C219   1.363       .  A
C219        N220   1.350       .  A
C219        C227   1.491       .  S
N220        C221   1.347       .  A
C221        N222   1.358       .  A
C221        C237   1.473       .  S
C223        N224   1.372       .  A
C223        N228   1.375       .  A
C223        C425   1.481       .  S
N224        C225   1.359       .  A
C225        N226   1.348       .  A
C225        C233   1.479       .  S
N226        C227   1.350       .  A
C227        N228   1.360       .  A
C229        N230   1.377   1_545  A
C229        N234   1.371   1_545  A
C229        C422   1.487       .  S
N230        C231   1.365       .  A
C231        N232   1.351       .  A
C231        C239   1.495       .  S
N232        C233   1.348       .  A
C233        N234   1.358       .  A
C235        N236   1.367   1_545  A
C235        N240   1.375   1_545  A
C235        C418   1.475       .  S
N236        C237   1.354       .  A
C237        N238   1.350       .  A
N238        C239   1.354       .  A
C239        N240   1.363       .  A
C241        N242   1.370       .  A
C241        N246   1.373       .  A
C241        C413   1.482       .  S
N242        C243   1.358       .  A
C243        N244   1.346       .  A
C243        C255   1.473       .  S
N244        C245   1.349       .  A
C245        N246   1.363       .  A
C245        C249   1.485       .  S
C247        N248   1.367       .  A
C247        N252   1.370       .  A
C247        C410   1.477       .  S
N248        C249   1.357       .  A
C249        N250   1.355       .  A
N250        C251   1.351       .  A
C251        N252   1.359       .  A
C251        C261   1.475       .  S
C253        N254   1.369       .  A
C253        N258   1.363       .  A
C253        C406   1.478       .  S
N254        C255   1.356       .  A
C255        N256   1.354       .  A
N256        C257   1.355       .  A
C257        N258   1.359       .  A
C257        C263   1.481       .  S
C259        N260   1.369       .  A
C259        N264   1.366       .  A
C259        C402   1.481       .  S
N260        C261   1.361       .  A
C261        N262   1.353       .  A
N262        C263   1.353       .  A
C263        N264   1.357       .  A
C265        N266   1.373       .  A
C265        N270   1.371       .  A
C265        C397   1.483       .  S
N266        C267   1.362       .  A
C267        N268   1.353       .  A
C267        C273   1.493   1_655  S
N268        C269   1.350       .  A
C269        N270   1.358       .  A
C271        N272   1.377       .  A
C271        N276   1.367       .  A
C271        C393   1.481       .  S
N272        C273   1.364       .  A
C273        N274   1.350       .  A
N274        C275   1.347   1_556  A
C275        N276   1.355   1_554  A
C277        N278   1.368   1_545  A
C277        N282   1.371   1_545  A
C277        C389   1.477       .  S
N278        C279   1.358       .  A
C279        N280   1.353       .  A
C279        C285   1.486   1_655  S
N280        C281   1.351       .  A
C281        N282   1.359       .  A
C283        N284   1.372   1_545  A
C283        N288   1.369   1_545  A
C283        C385   1.481       .  S
N284        C285   1.361       .  A
C285        N286   1.351       .  A
N286        C287   1.349       .  A
C287        N288   1.358       .  A
C289        N290   1.364       .  A
C289        N294   1.366       .  A
C289        C382   1.474       .  S
N290        C291   1.359       .  A
C291        N292   1.354       .  A
C291        C297   1.480       .  S
N292        C293   1.352       .  A
C293        N294   1.355       .  A
C295        N296   1.363       .  A
C295        N300   1.370       .  A
C295        C377   1.479       .  S
N296        C297   1.358   1_455  A
C297        N298   1.354   1_655  A
N298        C299   1.352       .  A
C299        N300   1.358       .  A
C301        N302   1.376       .  A
C301        N306   1.372       .  A
C301        C373   1.487       .  S
N302        C303   1.365       .  A
C303        N304   1.352       .  A
C303        C309   1.494       .  S
N304        C305   1.347       .  A
C305        N306   1.358       .  A
C307        N308   1.375       .  A
C307        N312   1.368       .  A
C307        C370   1.477       .  S
N308        C309   1.364   1_455  A
C309        N310   1.354   1_655  A
N310        C311   1.349       .  A
C311        N312   1.354       .  A
O313       Ni321   1.938       .  S
O313        C323   1.287       .  A
O314       Ni321   1.942       .  S
O314        C324   1.287       .  A
O315       Ni321   1.896       .  S
O315        C325   1.275       .  A
O316       Ni321   1.902       .  S
O316        C326   1.276       .  A
O317       Ni322   1.939       .  S
O317        C326   1.287       .  A
O318       Ni322   1.935       .  S
O318        C325   1.286       .  A
O319       Ni322   1.904       .  S
O319        C324   1.276       .  A
O320       Ni322   1.896       .  S
O320        C323   1.275       .  A
Ni321      Ni322   2.390       .  S
C323        C378   1.472       .  S
C324        C430   1.480       .  S
C325        C405   1.470       .  S
C326        C394   1.478       .  S
O327       Ni335   1.913       .  S
O327        C337   1.279       .  A
O328       Ni335   1.910       .  S
O328        C338   1.278       .  A
O329       Ni335   1.926       .  S
O329        C339   1.283       .  A
O330       Ni335   1.924       .  S
O330        C340   1.283       .  A
O331       Ni336   1.916       .  S
O331        C340   1.281       .  A
O332       Ni336   1.921       .  S
O332        C339   1.282       .  A
O333       Ni336   1.920       .  S
O333        C338   1.283       .  A
O334       Ni336   1.928       .  S
O334        C337   1.284       .  A
Ni335      Ni336   2.389       .  S
C337        C426   1.478       .  S
C338        C381   1.471       .  S
C339        C398   1.482       .  S
C340        C401   1.478       .  S
O341       Ni349   1.918       .  S
O341        C351   1.283       .  A
O342       Ni349   1.922       .  S
O342        C352   1.281       .  A
O343       Ni349   1.919       .  S
O343        C353   1.281       .  A
O344       Ni349   1.920       .  S
O344        C354   1.282       .  A
O345       Ni350   1.926       .  S
O345        C354   1.282       .  A
O346       Ni350   1.925       .  S
O346        C353   1.283       .  A
O347       Ni350   1.919       .  S
O347        C352   1.283       .  A
O348       Ni350   1.919       .  S
O348        C351   1.280       .  A
Ni349      Ni350   2.388       .  S
C351        C417   1.479       .  S
C352        C369   1.481       .  S
C353        C386   1.480       .  S
C354        C414   1.484       .  S
O355       Ni363   1.927       .  S
O355        C365   1.284       .  A
O356       Ni363   1.924       .  S
O356        C366   1.281       .  A
O357       Ni363   1.919       .  S
O357        C367   1.282       .  A
O358       Ni363   1.919       .  S
O358        C368   1.280       .  A
O359       Ni364   1.918       .  S
O359        C368   1.282       .  A
O360       Ni364   1.918       .  S
O360        C367   1.280       .  A
O361       Ni364   1.932       .  S
O361        C366   1.285       .  A
O362       Ni364   1.928       .  S
O362        C365   1.283       .  A
Ni363      Ni364   2.387       .  S
C365        C374   1.488       .  S
C366        C421   1.488       .  S
C367        C409   1.477       .  S
C368        C390   1.477       .  S
C369        C370   1.343       .  D
C369        H371   1.086       .  S
C370        H372   1.087       .  S
C373        C374   1.348       .  D
C373        H375   1.087       .  S
C374        H376   1.086       .  S
C377        C378   1.339       .  D
C377        H379   1.087       .  S
C378        H380   1.087       .  S
C381        C382   1.342       .  D
C381        H383   1.087       .  S
C382        H384   1.087       .  S
C385        C386   1.345       .  D
C385        H387   1.087       .  S
C386        H388   1.087       .  S
C389        C390   1.345       .  D
C389        H391   1.087       .  S
C390        H392   1.086       .  S
C393        C394   1.340       .  D
C393        H395   1.087       .  S
C394        H396   1.087       .  S
C397        C398   1.349       .  D
C397        H399   1.086       .  S
C398        H400   1.086       .  S
C401        C402   1.349       .  D
C401        H403   1.086       .  S
C402        H404   1.086       .  S
C405        C406   1.340       .  D
C405        H407   1.087       .  S
C406        H408   1.086       .  S
C409        C410   1.344       .  D
C409        H411   1.086       .  S
C410        H412   1.087       .  S
C413        C414   1.347       .  D
C413        H415   1.087       .  S
C414        H416   1.086       .  S
C417        C418   1.342       .  D
C417        H419   1.087       .  S
C418        H420   1.087       .  S
C421        C422   1.347       .  D
C421        H423   1.086       .  S
C422        H424   1.087       .  S
C425        C426   1.344       .  D
C425        H427   1.087       .  S
C426        H428   1.087       .  S
C429        C430   1.342       .  D
C429        H431   1.087       .  S
C430        H432   1.087       .  S
