geometry optimzed in LAMMPS
_audit_creation_date              2020-12-01 
_audit_creation_method            'lammps2cif' 
_symmetry_space_group_name_H-M    'P1' 
_symmetry_Int_Tables_number       1 
_symmetry_cell_setting            triclinic 
loop_ 
_symmetry_equiv_pos_as_xyz 
  x,y,z 
_cell_length_a                    35.3818311 
_cell_length_b                    26.181640330302827 
_cell_length_c                    26.871504925602615 
_cell_angle_alpha                 90.00095204709665 
_cell_angle_beta                  117.66003558615347 
_cell_angle_gamma                 89.9955124984092 
loop_ 
_atom_site_label 
_atom_site_type_symbol 
_atom_site_fract_x 
_atom_site_fract_y 
_atom_site_fract_z 
_atom_site_charge 
C1          C  0.03344923  0.82246156  0.22052809     0.87700
C2          C  0.04009739  0.77150659  0.19763381    -0.52500
C3          C  0.06291609  0.77628463  0.16861611     0.10700
C4          C  0.07656653  0.83123588  0.16468009     0.21600
C5          C  0.07849677  0.84417624  0.25557903    -0.53200
C6          C  0.10108194  0.84842890  0.22620428     0.10800
C7          C  0.01221941  0.85745201  0.16932673    -0.52800
C8          C  0.03478306  0.86234793  0.13988900     0.11300
H9          H  0.02895272  0.73501332  0.20502618     0.15900
H10         H  0.09526432  0.83460746  0.14111243     0.01600
H11         H  0.09208742  0.85251280  0.30019187     0.16200
H12         H  0.98250886  0.87758844  0.15824648     0.15900
C13         C  0.13111404  0.60692016  0.05908073     0.87700
C14         C  0.08605179  0.58525278  0.02401706    -0.52500
C15         C  0.06346769  0.58099715  0.05339193     0.10700
C16         C  0.08799978  0.59814027  0.11493345     0.21600
C17         C  0.12450249  0.65786647  0.08202617    -0.53200
C18         C  0.10168570  0.65308583  0.11104662     0.10800
C19         C  0.15232586  0.57188835  0.11025133    -0.52800
C20         C  0.12976456  0.56699091  0.13969330     0.11300
H21         H  0.07245292  0.57694656  0.47939730     0.15900
H22         H  0.06930282  0.59476686  0.13850162     0.01600
H23         H  0.13566626  0.69435788  0.07466057     0.16200
H24         H  0.18202566  0.55173390  0.12131292     0.15900
C25         C  0.29775520  0.82246023  0.30905637     0.87700
C26         C  0.29111218  0.77150493  0.33195110    -0.52500
C27         C  0.26829580  0.77628381  0.36097244     0.10700
C28         C  0.25464296  0.83123649  0.36491195     0.21600
C29         C  0.25270583  0.84417960  0.27400957    -0.53200
C30         C  0.23012316  0.84843295  0.30338815     0.10800
C31         C  0.31898517  0.85744736  0.36025795    -0.52800
C32         C  0.29642436  0.86234464  0.38969971     0.11300
H33         H  0.30225703  0.73501020  0.32455435     0.15900
H34         H  0.23594720  0.83460949  0.38848248     0.01600
H35         H  0.23911200  0.85251730  0.22939620     0.16200
H36         H  0.34869353  0.87758117  0.37133486     0.15900
C37         C  0.20010274  0.60692045  0.47049478     0.87700
C38         C  0.24516677  0.58524780  0.50555299    -0.52500
C39         C  0.26774764  0.58099105  0.47617313     0.10700
C40         C  0.24321046  0.59813749  0.41463205     0.21600
C41         C  0.20670939  0.65786673  0.44754842    -0.53200
C42         C  0.22952322  0.65308458  0.41852331     0.10800
C43         C  0.17888955  0.57189236  0.41932409    -0.52800
C44         C  0.20144722  0.56699278  0.38987698     0.11300
H45         H  0.25876932  0.57694202  0.05017294     0.15900
H46         H  0.26190447  0.59476285  0.39105882     0.01600
H47         H  0.19554682  0.69435945  0.45491904     0.16200
H48         H  0.14919210  0.55174028  0.40826693     0.15900
C49         C  0.03344985  0.10687934  0.22051956     0.87700
C50         C  0.07850311  0.08517234  0.25557018    -0.52500
C51         C  0.10108544  0.08091693  0.22619148     0.10700
C52         C  0.07656159  0.09809940  0.16466296     0.21600
C53         C  0.04008354  0.15783170  0.19761019    -0.53200
C54         C  0.06289958  0.15305076  0.16858828     0.10800
C55         C  0.01222451  0.07188054  0.16932676    -0.52800
C56         C  0.03478493  0.06698200  0.13988417     0.11300
H57         H  0.09209930  0.07684344  0.30018579     0.15900
H58         H  0.09525715  0.09472500  0.14109189     0.01600
H59         H  0.02893357  0.19432615  0.20499854     0.16200
H60         H  0.98251866  0.05174212  0.15825466     0.15900
C61         C  0.13109555  0.32241834  0.05907162     0.87700
C62         C  0.12448007  0.27146892  0.08200382    -0.52500
C63         C  0.10166633  0.27624905  0.11102895     0.10700
C64         C  0.08798768  0.33119728  0.11493379     0.21600
C65         C  0.08603513  0.34410285  0.02401739    -0.53200
C66         C  0.06345415  0.34835724  0.05339741     0.10600
C67         C  0.15231350  0.35743520  0.11025079    -0.52800
C68         C  0.12975556  0.36233320  0.13969718     0.11300
H69         H  0.13563914  0.23497634  0.07462661     0.15900
H70         H  0.06929345  0.33457056  0.13850648     0.01600
H71         H  0.07243398  0.35241795  0.47939886     0.16200
H72         H  0.18201398  0.37758303  0.12131297     0.15900
C73         C  0.29776508  0.10687808  0.30906196     0.87700
C74         C  0.25271400  0.08517453  0.27400745    -0.52500
C75         C  0.23012932  0.08091971  0.30338247     0.10700
C76         C  0.25464861  0.09810004  0.36491105     0.21600
C77         C  0.29112547  0.15783033  0.33196977    -0.53200
C78         C  0.26830717  0.15305032  0.36098789     0.10800
C79         C  0.31899077  0.07187674  0.36025528    -0.52800
C80         C  0.29642769  0.06697947  0.38969400     0.11300
H81         H  0.23912119  0.07684627  0.22939258     0.15900
H82         H  0.23595086  0.09472682  0.38847862     0.01600
H83         H  0.30227381  0.19432398  0.32458359     0.16200
H84         H  0.34869948  0.05173677  0.37133119     0.15900
C85         C  0.20009415  0.32241929  0.47050116     0.87700
C86         C  0.20671604  0.27146985  0.44757145    -0.52500
C87         C  0.22953364  0.27624875  0.41855206     0.10700
C88         C  0.24320973  0.33119574  0.41465018     0.21600
C89         C  0.24515212  0.34410026  0.50556123    -0.53200
C90         C  0.26773695  0.34835378  0.47618674     0.10800
C91         C  0.17887761  0.35743851  0.41932113    -0.52800
C92         C  0.20143979  0.36233491  0.38988065     0.11300
H93         H  0.19555796  0.23497801  0.45494579     0.15900
H94         H  0.26190703  0.33456813  0.39108213     0.01600
H95         H  0.25874886  0.35241509  0.05017933     0.16200
H96         H  0.14917514  0.37758848  0.40825409     0.15900
O97         O  0.14928237  0.51582983  0.31738348    -0.73200
O98         O  0.11600950  0.41307207  0.20326258    -0.73200
O99         O  0.14927795  0.41350663  0.31738475    -0.73300
O100        O  0.11601433  0.51626252  0.20325979    -0.73300
O101        O  0.18192540  0.51581623  0.21218759    -0.73200
O102        O  0.21518959  0.41306211  0.32631436    -0.73200
O103        O  0.18192106  0.41349308  0.21219199    -0.73200
O104        O  0.21519346  0.51625250  0.32631145    -0.73300
Ni105      Ni  0.13028976  0.46466831  0.25997904     1.25400
Ni106      Ni  0.20091359  0.46465556  0.26959494     1.25400
C107        C  0.18790848  0.53187608  0.34167487     0.89000
C108        C  0.14329476  0.39744751  0.18790042     0.88900
C109        C  0.18790306  0.39744967  0.34167706     0.89000
C110        C  0.14330050  0.53187381  0.18789560     0.89100
O111        O  0.31595185  0.01582848  0.06738684    -0.73200
O112        O  0.28268026  0.91307325  0.45326982    -0.73200
O113        O  0.31595014  0.91350730  0.06738903    -0.73300
O114        O  0.28268199  0.01625995  0.45326624    -0.73300
O115        O  0.01525973  0.01581754  0.46219274    -0.73200
O116        O  0.04852816  0.91306663  0.07631691    -0.73200
O117        O  0.01525816  0.91349619  0.46219764    -0.73200
O118        O  0.04852926  0.01625327  0.07631334    -0.73300
Ni119      Ni  0.29695979  0.96466762  0.00998471     1.25400
Ni120      Ni  0.03425020  0.96465807  0.01959852     1.25400
C121        C  0.02124436  0.03187420  0.09167750     0.89000
C122        C  0.30996547  0.89745099  0.43790704     0.88900
C123        C  0.02124260  0.89745390  0.09168064     0.89000
C124        C  0.30996729  0.03187166  0.43790139     0.89100
C125        C  0.25491832  0.19646101  0.38165559    -0.12000
C126        C  0.24291349  0.23283745  0.39787392    -0.13600
C127        C  0.31303359  0.35777021  0.50331894    -0.12000
C128        C  0.01815602  0.35777161  0.02626942    -0.13600
C129        C  0.17573546  0.31821432  0.50195059    -0.12000
C130        C  0.15545040  0.31821333  0.02761656    -0.13600
C131        C  0.14638040  0.07148579  0.25331548    -0.12000
C132        C  0.18483570  0.07148703  0.27625581    -0.13600
C133        C  0.00908928  0.11108489  0.25196617    -0.12000
C134        C  0.32212788  0.11108408  0.27761889    -0.13600
C135        C  0.07628604  0.19646144  0.14792235    -0.12000
C136        C  0.08828950  0.23283771  0.13170623    -0.13600
C137        C  0.24289726  0.69649474  0.39784083    -0.12000
C138        C  0.25490265  0.73287135  0.38162764    -0.13600
C139        C  0.01816976  0.57158742  0.02625823    -0.12000
C140        C  0.31304721  0.57158514  0.50330404    -0.13600
C141        C  0.15546990  0.61112699  0.02762685    -0.12000
C142        C  0.17574999  0.61112757  0.50195353    -0.13600
C143        C  0.18482930  0.85787052  0.27626616    -0.12000
C144        C  0.14637418  0.85786890  0.25332884    -0.13600
C145        C  0.32211797  0.81825673  0.27761343    -0.12000
C146        C  0.00908415  0.81825781  0.25196760    -0.13600
C147        C  0.07630850  0.73287222  0.14795503    -0.12000
C148        C  0.08831229  0.69649575  0.13173514    -0.13600
C149        C  0.03344917  0.82246120  0.72052793     0.87700
C150        C  0.04009725  0.77150602  0.69763379    -0.52500
C151        C  0.06291584  0.77628419  0.66861596     0.10700
C152        C  0.07656649  0.83123571  0.66468000     0.21600
C153        C  0.07849667  0.84417619  0.75557894    -0.53200
C154        C  0.10108186  0.84842896  0.72620418     0.10800
C155        C  0.01221938  0.85745189  0.66932661    -0.52800
C156        C  0.03478308  0.86234786  0.63988897     0.11300
H157        H  0.02895267  0.73501196  0.70502672     0.15900
H158        H  0.09526470  0.83460766  0.64111252     0.01600
H159        H  0.09208722  0.85251267  0.80019175     0.16200
H160        H  0.98250866  0.87758833  0.65824611     0.15900
C161        C  0.13111403  0.60692053  0.55908104     0.87700
C162        C  0.08605184  0.58525282  0.52401747    -0.52500
C163        C  0.06346755  0.58099735  0.55339235     0.10700
C164        C  0.08799954  0.59814046  0.61493376     0.21600
C165        C  0.12450236  0.65786688  0.58202640    -0.53200
C166        C  0.10168547  0.65308599  0.61104669     0.10800
C167        C  0.15232579  0.57188858  0.61025151    -0.52800
C168        C  0.12976435  0.56699101  0.63969342     0.11300
H169        H  0.07245255  0.57694647  0.97939642     0.15900
H170        H  0.06930241  0.59476743  0.63850253     0.01600
H171        H  0.13566548  0.69435891  0.57466041     0.16200
H172        H  0.18202551  0.55173397  0.62131306     0.15900
C173        C  0.29775529  0.82246022  0.80905662     0.87700
C174        C  0.29111229  0.77150466  0.83195122    -0.52500
C175        C  0.26829580  0.77628354  0.86097257     0.10700
C176        C  0.25464279  0.83123639  0.86491216     0.21600
C177        C  0.25270569  0.84417960  0.77400983    -0.53200
C178        C  0.23012301  0.84843285  0.80338840     0.10800
C179        C  0.31898528  0.85744743  0.86025825    -0.52800
C180        C  0.29642427  0.86234478  0.88969980     0.11300
H181        H  0.30225711  0.73500973  0.82455398     0.15900
H182        H  0.23594685  0.83460940  0.88848312     0.01600
H183        H  0.23911160  0.85251721  0.72939631     0.16200
H184        H  0.34869373  0.87758217  0.87133505     0.15900
C185        C  0.20010244  0.60692077  0.97049437     0.87700
C186        C  0.24516639  0.58524795  0.00555238    -0.52500
C187        C  0.26774748  0.58099132  0.97617286     0.10700
C188        C  0.24321034  0.59813770  0.91463211     0.21600
C189        C  0.20670926  0.65786706  0.94754831    -0.53200
C190        C  0.22952306  0.65308485  0.91852333     0.10800
C191        C  0.17888941  0.57189244  0.91932397    -0.52800
C192        C  0.20144712  0.56699286  0.88987697     0.11300
H193        H  0.25877022  0.57694117  0.55017426     0.15900
H194        H  0.26190445  0.59476288  0.89105940     0.01600
H195        H  0.19554630  0.69436007  0.95491869     0.16200
H196        H  0.14919180  0.55174046  0.90826668     0.15900
C197        C  0.03344965  0.10687967  0.72051920     0.87700
C198        C  0.07850289  0.08517251  0.75556966    -0.52500
C199        C  0.10108532  0.08091703  0.72619117     0.10700
C200        C  0.07656142  0.09809958  0.66466288     0.21600
C201        C  0.04008342  0.15783207  0.69761015    -0.53200
C202        C  0.06289932  0.15305105  0.66858817     0.10800
C203        C  0.01222440  0.07188072  0.66932646    -0.52800
C204        C  0.03478480  0.06698214  0.63988386     0.11300
H205        H  0.09209878  0.07684357  0.80018460     0.15900
H206        H  0.09525701  0.09472563  0.64109196     0.01600
H207        H  0.02893326  0.19432676  0.70499848     0.16200
H208        H  0.98251839  0.05174226  0.65825429     0.15900
C209        C  0.13109577  0.32241855  0.55907194     0.87700
C210        C  0.12448020  0.27146925  0.58200407    -0.52500
C211        C  0.10166636  0.27624923  0.61102915     0.10700
C212        C  0.08798768  0.33119719  0.61493405     0.21600
C213        C  0.08603525  0.34410276  0.52401767    -0.53200
C214        C  0.06345429  0.34835722  0.55339782     0.10600
C215        C  0.15231372  0.35743532  0.61025099    -0.52800
C216        C  0.12975563  0.36233320  0.63969731     0.11300
H217        H  0.13563828  0.23497678  0.57462579     0.15900
H218        H  0.06929356  0.33457029  0.63850714     0.01600
H219        H  0.07243395  0.35241829  0.97939821     0.16200
H220        H  0.18201430  0.37758393  0.62131304     0.15900
C221        C  0.29776498  0.10687805  0.80906182     0.87700
C222        C  0.25271391  0.08517448  0.77400727    -0.52500
C223        C  0.23012918  0.08091976  0.80338219     0.10700
C224        C  0.25464847  0.09809994  0.86491084     0.21600
C225        C  0.29112541  0.15783025  0.83196966    -0.53200
C226        C  0.26830726  0.15305016  0.86098798     0.10800
C227        C  0.31899071  0.07187678  0.86025533    -0.52800
C228        C  0.29642751  0.06697941  0.88969390     0.11300
H229        H  0.23912109  0.07684575  0.72939225     0.15900
H230        H  0.23595076  0.09472703  0.88847840     0.01600
H231        H  0.30227431  0.19432377  0.82458438     0.16200
H232        H  0.34869872  0.05173626  0.87133083     0.15900
C233        C  0.20009424  0.32241915  0.97050102     0.87700
C234        C  0.20671619  0.27146979  0.94757139    -0.52500
C235        C  0.22953379  0.27624871  0.91855203     0.10700
C236        C  0.24320981  0.33119564  0.91464997     0.21600
C237        C  0.24515219  0.34410010  0.00556105    -0.53200
C238        C  0.26773705  0.34835351  0.97618659     0.10800
C239        C  0.17887753  0.35743845  0.91932103    -0.52800
C240        C  0.20143978  0.36233490  0.88988053     0.11300
H241        H  0.19555798  0.23497790  0.95494554     0.15900
H242        H  0.26190739  0.33456751  0.89108184     0.01600
H243        H  0.25874864  0.35241517  0.55017951     0.16200
H244        H  0.14917527  0.37758857  0.90825423     0.15900
O245        O  0.14928249  0.51582985  0.81738349    -0.73200
O246        O  0.11600943  0.41307235  0.70326253    -0.73200
O247        O  0.14927792  0.41350656  0.81738476    -0.73300
O248        O  0.11601430  0.51626254  0.70325959    -0.73300
O249        O  0.18192540  0.51581638  0.71218789    -0.73200
O250        O  0.21518939  0.41306216  0.82631424    -0.73200
O251        O  0.18192096  0.41349317  0.71219195    -0.73200
O252        O  0.21519364  0.51625242  0.82631169    -0.73300
Ni253      Ni  0.13028979  0.46466836  0.75997904     1.25400
Ni254      Ni  0.20091358  0.46465556  0.76959499     1.25400
C255        C  0.18790859  0.53187619  0.84167487     0.89000
C256        C  0.14329466  0.39744762  0.68790042     0.88900
C257        C  0.18790299  0.39744977  0.84167713     0.89000
C258        C  0.14330056  0.53187415  0.68789587     0.89100
O259        O  0.31595160  0.01582864  0.56738678    -0.73200
O260        O  0.28268019  0.91307318  0.95327003    -0.73200
O261        O  0.31595020  0.91350729  0.56738910    -0.73300
O262        O  0.28268217  0.01625972  0.95326632    -0.73300
O263        O  0.01525977  0.01581755  0.96219283    -0.73200
O264        O  0.04852809  0.91306649  0.57631692    -0.73200
O265        O  0.01525823  0.91349624  0.96219783    -0.73200
O266        O  0.04852943  0.01625313  0.57631332    -0.73300
Ni267      Ni  0.29695975  0.96466772  0.50998467     1.25400
Ni268      Ni  0.03425015  0.96465805  0.51959848     1.25400
C269        C  0.02124449  0.03187425  0.59167737     0.89000
C270        C  0.30996538  0.89745101  0.93790721     0.88900
C271        C  0.02124258  0.89745381  0.59168067     0.89000
C272        C  0.30996743  0.03187167  0.93790151     0.89100
C273        C  0.25491831  0.19646099  0.88165547    -0.12000
C274        C  0.24291335  0.23283726  0.89787389    -0.13600
C275        C  0.31303357  0.35777031  0.00331904    -0.12000
C276        C  0.01815616  0.35777143  0.52626966    -0.13600
C277        C  0.17573561  0.31821428  0.00195061    -0.12000
C278        C  0.15545031  0.31821318  0.52761655    -0.13600
C279        C  0.14638038  0.07148602  0.75331549    -0.12000
C280        C  0.18483566  0.07148707  0.77625577    -0.13600
C281        C  0.00908927  0.11108500  0.75196609    -0.12000
C282        C  0.32212784  0.11108395  0.77761882    -0.13600
C283        C  0.07628594  0.19646168  0.64792236    -0.12000
C284        C  0.08828953  0.23283777  0.63170617    -0.13600
C285        C  0.24289718  0.69649462  0.89784072    -0.12000
C286        C  0.25490272  0.73287102  0.88162761    -0.13600
C287        C  0.01816982  0.57158731  0.52625835    -0.12000
C288        C  0.31304704  0.57158501  0.00330404    -0.13600
C289        C  0.15546989  0.61112727  0.52762685    -0.12000
C290        C  0.17574988  0.61112783  0.00195339    -0.13600
C291        C  0.18482925  0.85787036  0.77626612    -0.12000
C292        C  0.14637417  0.85786872  0.75332911    -0.13600
C293        C  0.32211805  0.81825693  0.77761345    -0.12000
C294        C  0.00908409  0.81825762  0.75196736    -0.13600
C295        C  0.07630844  0.73287210  0.64795497    -0.12000
C296        C  0.08831215  0.69649578  0.63173499    -0.13600
C297        C  0.36678247  0.82246157  0.22052805     0.87700
C298        C  0.37343063  0.77150657  0.19763386    -0.52500
C299        C  0.39624926  0.77628463  0.16861608     0.10700
C300        C  0.40989982  0.83123591  0.16468018     0.21600
C301        C  0.41183004  0.84417627  0.25557903    -0.53200
C302        C  0.43441523  0.84842896  0.22620434     0.10800
C303        C  0.34555266  0.85745202  0.16932664    -0.52800
C304        C  0.36811637  0.86234796  0.13988901     0.11300
H305        H  0.36228588  0.73501321  0.20502617     0.15900
H306        H  0.42859762  0.83460754  0.14111263     0.01600
H307        H  0.42542064  0.85251279  0.30019188     0.16200
H308        H  0.31584203  0.87758849  0.15824634     0.15900
C309        C  0.46444727  0.60692012  0.05908081     0.87700
C310        C  0.41938514  0.58525281  0.02401706    -0.52500
C311        C  0.39680088  0.58099708  0.05339189     0.10700
C312        C  0.42133280  0.59814015  0.11493353     0.21600
C313        C  0.45783562  0.65786626  0.08202632    -0.53200
C314        C  0.43501877  0.65308560  0.11104676     0.10800
C315        C  0.48565900  0.57188841  0.11025146    -0.52800
C316        C  0.46309765  0.56699098  0.13969342     0.11300
H317        H  0.40578601  0.57694661  0.47939726     0.15900
H318        H  0.40263555  0.59476676  0.13850166     0.01600
H319        H  0.46899907  0.69435759  0.07466069     0.16200
H320        H  0.51535845  0.55173363  0.12131292     0.15900
C321        C  0.63108843  0.82246027  0.30905635     0.87700
C322        C  0.62444546  0.77150495  0.33195119    -0.52500
C323        C  0.60162898  0.77628384  0.36097241     0.10700
C324        C  0.58797620  0.83123650  0.36491199     0.21600
C325        C  0.58603894  0.84417966  0.27400961    -0.53200
C326        C  0.56345637  0.84843289  0.30338827     0.10800
C327        C  0.65231847  0.85744737  0.36025798    -0.52800
C328        C  0.62975761  0.86234465  0.38969973     0.11300
H329        H  0.63559017  0.73501030  0.32455443     0.15900
H330        H  0.56928036  0.83460947  0.38848255     0.01600
H331        H  0.57244478  0.85251734  0.22939631     0.16200
H332        H  0.68202681  0.87758117  0.37133492     0.15900
C333        C  0.53343596  0.60692060  0.47049488     0.87700
C334        C  0.57850002  0.58524783  0.50555312    -0.52500
C335        C  0.60108088  0.58099103  0.47617335     0.10700
C336        C  0.57654361  0.59813757  0.41463232     0.21600
C337        C  0.54004256  0.65786703  0.44754864    -0.53200
C338        C  0.56285626  0.65308482  0.41852344     0.10800
C339        C  0.51222287  0.57189241  0.41932406    -0.52800
C340        C  0.53478052  0.56699278  0.38987711     0.11300
H341        H  0.59210257  0.57694201  0.05017301     0.15900
H342        H  0.59523727  0.59476282  0.39105912     0.01600
H343        H  0.52887958  0.69435994  0.45491912     0.16200
H344        H  0.48252540  0.55174025  0.40826680     0.15900
C345        C  0.36678316  0.10687929  0.22051952     0.87700
C346        C  0.41183647  0.08517235  0.25557025    -0.52500
C347        C  0.43441877  0.08091694  0.22619154     0.10700
C348        C  0.40989485  0.09809940  0.16466298     0.21600
C349        C  0.37341693  0.15783166  0.19761012    -0.53200
C350        C  0.39623297  0.15305074  0.16858832     0.10800
C351        C  0.34555784  0.07188045  0.16932671    -0.52800
C352        C  0.36811822  0.06698197  0.13988413     0.11300
H353        H  0.42543268  0.07684336  0.30018590     0.15900
H354        H  0.42859035  0.09472510  0.14109187     0.01600
H355        H  0.36226698  0.19432616  0.20499832     0.16200
H356        H  0.31585179  0.05174197  0.15825440     0.15900
C357        C  0.46442871  0.32241827  0.05907150     0.87700
C358        C  0.45781329  0.27146903  0.08200383    -0.52500
C359        C  0.43499957  0.27624916  0.11102902     0.10700
C360        C  0.42132082  0.33119730  0.11493378     0.21600
C361        C  0.41936843  0.34410283  0.02401731    -0.53200
C362        C  0.39678747  0.34835734  0.05339737     0.10600
C363        C  0.48564649  0.35743496  0.11025073    -0.52800
C364        C  0.46308856  0.36233308  0.13969715     0.11300
H365        H  0.46897201  0.23497656  0.07462655     0.15900
H366        H  0.40262660  0.33457062  0.13850640     0.01600
H367        H  0.40576732  0.35241794  0.47939889     0.16200
H368        H  0.51534641  0.37758263  0.12131271     0.15900
C369        C  0.63109827  0.10687843  0.30906181     0.87700
C370        C  0.58604738  0.08517466  0.27400732    -0.52500
C371        C  0.56346266  0.08091969  0.30338235     0.10700
C372        C  0.58798190  0.09810012  0.36491100     0.21600
C373        C  0.62445882  0.15783063  0.33196960    -0.53200
C374        C  0.60164062  0.15305056  0.36098788     0.10800
C375        C  0.65232381  0.07187706  0.36025520    -0.52800
C376        C  0.62976082  0.06697965  0.38969399     0.11300
H377        H  0.57245491  0.07684624  0.22939243     0.15900
H378        H  0.56928420  0.09472680  0.38847860     0.01600
H379        H  0.63560763  0.19432446  0.32458363     0.16200
H380        H  0.68203186  0.05173721  0.37133079     0.15900
C381        C  0.53342726  0.32241948  0.47050095     0.87700
C382        C  0.54004930  0.27146994  0.44757133    -0.52500
C383        C  0.56286696  0.27624879  0.41855209     0.10700
C384        C  0.57654298  0.33119578  0.41465020     0.21600
C385        C  0.57848538  0.34410028  0.50556115    -0.53200
C386        C  0.60107023  0.34835374  0.47618675     0.10800
C387        C  0.51221052  0.35743881  0.41932100    -0.52800
C388        C  0.53477278  0.36233507  0.38988062     0.11300
H389        H  0.52889132  0.23497807  0.45494571     0.15900
H390        H  0.59524043  0.33456809  0.39108235     0.01600
H391        H  0.59208214  0.35241503  0.05017938     0.16200
H392        H  0.48250752  0.37758896  0.40825373     0.15900
O393        O  0.48261576  0.51582983  0.31738352    -0.73200
O394        O  0.44934281  0.41307207  0.20326259    -0.73200
O395        O  0.48261124  0.41350667  0.31738467    -0.73300
O396        O  0.44934769  0.51626248  0.20325983    -0.73300
O397        O  0.51525863  0.51581624  0.21218761    -0.73200
O398        O  0.54852280  0.41306209  0.32631440    -0.73200
O399        O  0.51525434  0.41349308  0.21219195    -0.73200
O400        O  0.54852684  0.51625250  0.32631147    -0.73300
Ni401      Ni  0.46362315  0.46466830  0.25997904     1.25400
Ni402      Ni  0.53424689  0.46465557  0.26959495     1.25400
C403        C  0.52124189  0.53187609  0.34167491     0.89000
C404        C  0.47662803  0.39744749  0.18790040     0.88900
C405        C  0.52123628  0.39744970  0.34167707     0.89000
C406        C  0.47663377  0.53187381  0.18789562     0.89100
O407        O  0.64928507  0.01582852  0.06738688    -0.73200
O408        O  0.61601345  0.91307328  0.45326985    -0.73200
O409        O  0.64928348  0.91350728  0.06738904    -0.73300
O410        O  0.61601552  0.01625997  0.45326628    -0.73300
O411        O  0.34859293  0.01581751  0.46219275    -0.73200
O412        O  0.38186149  0.91306664  0.07631691    -0.73200
O413        O  0.34859166  0.91349620  0.46219770    -0.73200
O414        O  0.38186266  0.01625325  0.07631333    -0.73300
Ni415      Ni  0.63029309  0.96466760  0.00998470     1.25400
Ni416      Ni  0.36758344  0.96465806  0.01959850     1.25400
C417        C  0.35457783  0.03187419  0.09167752     0.89000
C418        C  0.64329865  0.89745099  0.43790704     0.88900
C419        C  0.35457599  0.89745390  0.09168066     0.89000
C420        C  0.64330080  0.03187168  0.43790140     0.89100
C421        C  0.58825175  0.19646113  0.38165562    -0.12000
C422        C  0.57624670  0.23283737  0.39787394    -0.13600
C423        C  0.64636688  0.35777018  0.50331905    -0.12000
C424        C  0.35148937  0.35777165  0.02626934    -0.13600
C425        C  0.50906875  0.31821434  0.50195053    -0.12000
C426        C  0.48878382  0.31821327  0.02761671    -0.13600
C427        C  0.47971376  0.07148582  0.25331549    -0.12000
C428        C  0.51816907  0.07148703  0.27625581    -0.13600
C429        C  0.34242251  0.11108488  0.25196603    -0.12000
C430        C  0.65546129  0.11108405  0.27761892    -0.13600
C431        C  0.40961929  0.19646152  0.14792236    -0.12000
C432        C  0.42162286  0.23283771  0.13170628    -0.13600
C433        C  0.57623058  0.69649472  0.39784082    -0.12000
C434        C  0.58823597  0.73287132  0.38162762    -0.13600
C435        C  0.35150303  0.57158738  0.02625816    -0.12000
C436        C  0.64638045  0.57158514  0.50330397    -0.13600
C437        C  0.48880329  0.61112703  0.02762694    -0.12000
C438        C  0.50908321  0.61112756  0.50195357    -0.13600
C439        C  0.51816258  0.85787050  0.27626616    -0.12000
C440        C  0.47970749  0.85786890  0.25332889    -0.13600
C441        C  0.65545129  0.81825677  0.27761335    -0.12000
C442        C  0.34241742  0.81825778  0.25196751    -0.13600
C443        C  0.40964179  0.73287226  0.14795505    -0.12000
C444        C  0.42164553  0.69649575  0.13173513    -0.13600
C445        C  0.36678251  0.82246120  0.72052801     0.87700
C446        C  0.37343061  0.77150599  0.69763385    -0.52500
C447        C  0.39624922  0.77628419  0.66861609     0.10700
C448        C  0.40989980  0.83123569  0.66468012     0.21600
C449        C  0.41183007  0.84417620  0.75557900    -0.53200
C450        C  0.43441519  0.84842894  0.72620421     0.10800
C451        C  0.34555269  0.85745190  0.66932670    -0.52800
C452        C  0.36811644  0.86234788  0.63988913     0.11300
H453        H  0.36228624  0.73501198  0.70502691     0.15900
H454        H  0.42859771  0.83460766  0.64111253     0.01600
H455        H  0.42542073  0.85251262  0.80019176     0.16200
H456        H  0.31584200  0.87758836  0.65824627     0.15900
C457        C  0.46444748  0.60692061  0.55908097     0.87700
C458        C  0.41938521  0.58525286  0.52401742    -0.52500
C459        C  0.39680105  0.58099742  0.55339228     0.10700
C460        C  0.42133315  0.59814065  0.61493360     0.21600
C461        C  0.45783588  0.65786712  0.58202615    -0.53200
C462        C  0.43501911  0.65308629  0.61104653     0.10800
C463        C  0.48565927  0.57188854  0.61025146    -0.52800
C464        C  0.46309787  0.56699103  0.63969330     0.11300
H465        H  0.40578624  0.57694641  0.97939638     0.15900
H466        H  0.40263630  0.59476763  0.63850220     0.01600
H467        H  0.46899951  0.69435930  0.57466029     0.16200
H468        H  0.51535897  0.55173381  0.62131295     0.15900
C469        C  0.63108870  0.82246019  0.80905655     0.87700
C470        C  0.62444574  0.77150461  0.83195117    -0.52500
C471        C  0.60162924  0.77628347  0.86097249     0.10700
C472        C  0.58797635  0.83123633  0.86491209     0.21600
C473        C  0.58603915  0.84417958  0.77400975    -0.53200
C474        C  0.56345645  0.84843284  0.80338830     0.10800
C475        C  0.65231874  0.85744743  0.86025813    -0.52800
C476        C  0.62975778  0.86234476  0.88969970     0.11300
H477        H  0.63559047  0.73500978  0.82455374     0.15900
H478        H  0.56928079  0.83460931  0.88848322     0.01600
H479        H  0.57244512  0.85251713  0.72939623     0.16200
H480        H  0.68202703  0.87758213  0.87133476     0.15900
C481        C  0.53343575  0.60692066  0.97049436     0.87700
C482        C  0.57849967  0.58524795  0.00555241    -0.52500
C483        C  0.60108083  0.58099129  0.97617289     0.10700
C484        C  0.57654372  0.59813766  0.91463208     0.21600
C485        C  0.54004263  0.65786687  0.94754819    -0.53200
C486        C  0.56285651  0.65308470  0.91852327     0.10800
C487        C  0.51222267  0.57189242  0.91932401    -0.52800
C488        C  0.53478042  0.56699286  0.88987699     0.11300
H489        H  0.59210322  0.57694113  0.55017440     0.15900
H490        H  0.59523780  0.59476294  0.89105932     0.01600
H491        H  0.52888009  0.69435969  0.95491882     0.16200
H492        H  0.48252519  0.55174050  0.90826687     0.15900
C493        C  0.36678302  0.10687953  0.72051923     0.87700
C494        C  0.41183623  0.08517248  0.75556959    -0.52500
C495        C  0.43441869  0.08091704  0.72619105     0.10700
C496        C  0.40989483  0.09809953  0.66466276     0.21600
C497        C  0.37341683  0.15783183  0.69761005    -0.53200
C498        C  0.39623281  0.15305087  0.66858808     0.10800
C499        C  0.34555768  0.07188067  0.66932656    -0.52800
C500        C  0.36811811  0.06698211  0.63988387     0.11300
H501        H  0.42543216  0.07684366  0.80018449     0.15900
H502        H  0.42859051  0.09472562  0.64109180     0.01600
H503        H  0.36226709  0.19432631  0.70499861     0.16200
H504        H  0.31585178  0.05174229  0.65825457     0.15900
C505        C  0.46442908  0.32241843  0.55907191     0.87700
C506        C  0.45781359  0.27146902  0.58200396    -0.52500
C507        C  0.43499982  0.27624904  0.61102913     0.10700
C508        C  0.42132108  0.33119712  0.61493401     0.21600
C509        C  0.41936851  0.34410273  0.52401766    -0.53200
C510        C  0.39678755  0.34835715  0.55339779     0.10600
C511        C  0.48564708  0.35743530  0.61025098    -0.52800
C512        C  0.46308903  0.36233316  0.63969732     0.11300
H513        H  0.46897219  0.23497641  0.57462593     0.15900
H514        H  0.40262688  0.33457027  0.63850707     0.01600
H515        H  0.40576720  0.35241834  0.97939812     0.16200
H516        H  0.51534754  0.37758394  0.62131296     0.15900
C517        C  0.63109844  0.10687787  0.80906203     0.87700
C518        C  0.58604732  0.08517446  0.77400745    -0.52500
C519        C  0.56346253  0.08091977  0.80338240     0.10700
C520        C  0.58798172  0.09809986  0.86491108     0.21600
C521        C  0.62445872  0.15783008  0.83196979    -0.53200
C522        C  0.60164044  0.15305001  0.86098803     0.10800
C523        C  0.65232424  0.07187654  0.86025540    -0.52800
C524        C  0.62976099  0.06697928  0.88969402     0.11300
H525        H  0.57245445  0.07684579  0.72939239     0.15900
H526        H  0.56928366  0.09472707  0.88847866     0.01600
H527        H  0.63560745  0.19432357  0.82458432     0.16200
H528        H  0.68203284  0.05173590  0.87133113     0.15900
C529        C  0.53342752  0.32241911  0.97050114     0.87700
C530        C  0.54004945  0.27146971  0.94757157    -0.52500
C531        C  0.56286697  0.27624868  0.91855212     0.10700
C532        C  0.57654300  0.33119568  0.91465014     0.21600
C533        C  0.57848549  0.34410016  0.00556113    -0.53200
C534        C  0.60107035  0.34835360  0.97618672     0.10800
C535        C  0.51221088  0.35743841  0.91932112    -0.52800
C536        C  0.53477305  0.36233491  0.88988064     0.11300
H537        H  0.52889130  0.23497781  0.95494582     0.15900
H538        H  0.59524025  0.33456766  0.89108196     0.01600
H539        H  0.59208195  0.35241516  0.55017943     0.16200
H540        H  0.48250864  0.37758852  0.90825429     0.15900
O541        O  0.48261571  0.51582984  0.81738348    -0.73200
O542        O  0.44934288  0.41307233  0.70326256    -0.73200
O543        O  0.48261113  0.41350658  0.81738476    -0.73300
O544        O  0.44934762  0.51626259  0.70325958    -0.73300
O545        O  0.51525883  0.51581638  0.71218788    -0.73200
O546        O  0.54852271  0.41306211  0.82631426    -0.73200
O547        O  0.51525441  0.41349318  0.71219197    -0.73200
O548        O  0.54852686  0.51625243  0.82631166    -0.73300
Ni549      Ni  0.46362313  0.46466836  0.75997904     1.25400
Ni550      Ni  0.53424695  0.46465555  0.76959500     1.25400
C551        C  0.52124180  0.53187619  0.84167485     0.89000
C552        C  0.47662813  0.39744762  0.68790044     0.88900
C553        C  0.52123625  0.39744977  0.84167714     0.89000
C554        C  0.47663395  0.53187417  0.68789585     0.89100
O555        O  0.64928512  0.01582863  0.56738677    -0.73200
O556        O  0.61601369  0.91307314  0.95327003    -0.73200
O557        O  0.64928347  0.91350732  0.56738908    -0.73300
O558        O  0.61601552  0.01625971  0.95326631    -0.73300
O559        O  0.34859307  0.01581755  0.96219281    -0.73200
O560        O  0.38186153  0.91306651  0.57631691    -0.73200
O561        O  0.34859157  0.91349624  0.96219783    -0.73200
O562        O  0.38186260  0.01625312  0.57631331    -0.73300
Ni563      Ni  0.63029314  0.96466776  0.50998469     1.25400
Ni564      Ni  0.36758354  0.96465807  0.51959849     1.25400
C565        C  0.35457764  0.03187425  0.59167734     0.89000
C566        C  0.64329890  0.89745099  0.93790721     0.88900
C567        C  0.35457603  0.89745379  0.59168070     0.89000
C568        C  0.64330079  0.03187164  0.93790152     0.89100
C569        C  0.58825165  0.19646099  0.88165544    -0.12000
C570        C  0.57624673  0.23283736  0.89787383    -0.13600
C571        C  0.64636697  0.35777033  0.00331898    -0.12000
C572        C  0.35148941  0.35777143  0.52626964    -0.13600
C573        C  0.50906894  0.31821421  0.00195069    -0.12000
C574        C  0.48878365  0.31821325  0.52761656    -0.13600
C575        C  0.47971371  0.07148599  0.75331544    -0.12000
C576        C  0.51816899  0.07148707  0.77625577    -0.13600
C577        C  0.34242272  0.11108501  0.75196629    -0.12000
C578        C  0.65546113  0.11108396  0.77761882    -0.13600
C579        C  0.40961935  0.19646162  0.64792235    -0.12000
C580        C  0.42162282  0.23283778  0.63170613    -0.13600
C581        C  0.57623060  0.69649455  0.89784071    -0.12000
C582        C  0.58823603  0.73287108  0.88162763    -0.13600
C583        C  0.35150322  0.57158730  0.52625838    -0.12000
C584        C  0.64638043  0.57158503  0.00330407    -0.13600
C585        C  0.48880314  0.61112718  0.52762687    -0.12000
C586        C  0.50908322  0.61112786  0.00195341    -0.13600
C587        C  0.51816259  0.85787033  0.77626620    -0.12000
C588        C  0.47970748  0.85786872  0.75332900    -0.13600
C589        C  0.65545127  0.81825692  0.77761331    -0.12000
C590        C  0.34241747  0.81825760  0.75196744    -0.13600
C591        C  0.40964183  0.73287215  0.64795500    -0.12000
C592        C  0.42164558  0.69649585  0.63173502    -0.13600
C593        C  0.70011607  0.82246145  0.22052807     0.87700
C594        C  0.70676408  0.77150655  0.19763377    -0.52500
C595        C  0.72958277  0.77628459  0.16861600     0.10700
C596        C  0.74323339  0.83123579  0.16468005     0.21600
C597        C  0.74516347  0.84417617  0.25557906    -0.53200
C598        C  0.76774869  0.84842884  0.22620430     0.10800
C599        C  0.67888637  0.85745184  0.16932666    -0.52800
C600        C  0.70145003  0.86234778  0.13988891     0.11300
H601        H  0.69561912  0.73501328  0.20502593     0.15900
H602        H  0.76193150  0.83460732  0.14111250     0.01600
H603        H  0.75875397  0.85251288  0.30019192     0.16200
H604        H  0.64917626  0.87758819  0.15824653     0.15900
C605        C  0.79778070  0.60691996  0.05908086     0.87700
C606        C  0.75271839  0.58525268  0.02401718    -0.52500
C607        C  0.73013427  0.58099708  0.05339213     0.10700
C608        C  0.75466630  0.59814011  0.11493367     0.21600
C609        C  0.79116904  0.65786621  0.08202640    -0.53200
C610        C  0.76835212  0.65308555  0.11104681     0.10800
C611        C  0.81899262  0.57188822  0.11025151    -0.52800
C612        C  0.79643123  0.56699082  0.13969347     0.11300
H613        H  0.73911969  0.57694655  0.47939720     0.15900
H614        H  0.73596902  0.59476667  0.13850196     0.01600
H615        H  0.80233232  0.69435745  0.07466063     0.16200
H616        H  0.84869250  0.55173341  0.12131314     0.15900
C617        C  0.96442184  0.82246013  0.30905648     0.87700
C618        C  0.95777886  0.77150479  0.33195110    -0.52500
C619        C  0.93496237  0.77628369  0.36097237     0.10700
C620        C  0.92130942  0.83123646  0.36491199     0.21600
C621        C  0.91937247  0.84417955  0.27400965    -0.53200
C622        C  0.89678973  0.84843287  0.30338821     0.10800
C623        C  0.98565171  0.85744731  0.36025807    -0.52800
C624        C  0.96309085  0.86234461  0.38969979     0.11300
H625        H  0.96892405  0.73500994  0.32455448     0.15900
H626        H  0.90261330  0.83460945  0.38848245     0.01600
H627        H  0.90577872  0.85251735  0.22939629     0.16200
H628        H  0.01536018  0.87758120  0.37133512     0.15900
C629        C  0.86676929  0.60692059  0.47049475     0.87700
C630        C  0.91183335  0.58524784  0.50555304    -0.52500
C631        C  0.93441429  0.58099105  0.47617330     0.10700
C632        C  0.90987706  0.59813750  0.41463222     0.21600
C633        C  0.87337595  0.65786696  0.44754851    -0.53200
C634        C  0.89618974  0.65308475  0.41852340     0.10800
C635        C  0.84555618  0.57189240  0.41932399    -0.52800
C636        C  0.86811385  0.56699279  0.38987698     0.11300
H637        H  0.92543624  0.57694207  0.05017289     0.15900
H638        H  0.92857106  0.59476277  0.39105904     0.01600
H639        H  0.86221297  0.69435989  0.45491889     0.16200
H640        H  0.81585858  0.55174023  0.40826663     0.15900
C641        C  0.70011665  0.10687961  0.22051960     0.87700
C642        C  0.74516984  0.08517244  0.25557030    -0.52500
C643        C  0.76775216  0.08091699  0.22619163     0.10700
C644        C  0.74322831  0.09809954  0.16466310     0.21600
C645        C  0.70675018  0.15783200  0.19761029    -0.53200
C646        C  0.72956617  0.15305100  0.16858836     0.10800
C647        C  0.67889147  0.07188077  0.16932671    -0.52800
C648        C  0.70145185  0.06698216  0.13988417     0.11300
H649        H  0.75876594  0.07684333  0.30018591     0.15900
H650        H  0.76192387  0.09472511  0.14109210     0.01600
H651        H  0.69559971  0.19432663  0.20499833     0.16200
H652        H  0.64918609  0.05174236  0.15825467     0.15900
C653        C  0.79776229  0.32241838  0.05907166     0.87700
C654        C  0.79114680  0.27146894  0.08200378    -0.52500
C655        C  0.76833304  0.27624900  0.11102892     0.10700
C656        C  0.75465432  0.33119721  0.11493377     0.21600
C657        C  0.75270185  0.34410282  0.02401744    -0.53200
C658        C  0.73012089  0.34835721  0.05339744     0.10600
C659        C  0.81898016  0.35743523  0.11025081    -0.52800
C660        C  0.79642216  0.36233322  0.13969713     0.11300
H661        H  0.80230591  0.23497637  0.07462652     0.15900
H662        H  0.73596010  0.33457047  0.13850641     0.01600
H663        H  0.73910056  0.35241799  0.47939881     0.16200
H664        H  0.84868074  0.37758312  0.12131305     0.15900
C665        C  0.96443150  0.10687827  0.30906179     0.87700
C666        C  0.91938054  0.08517457  0.27400736    -0.52500
C667        C  0.89679587  0.08091971  0.30338238     0.10700
C668        C  0.92131511  0.09810008  0.36491097     0.21600
C669        C  0.95779208  0.15783042  0.33196967    -0.53200
C670        C  0.93497385  0.15305038  0.36098792     0.10800
C671        C  0.98565709  0.07187703  0.36025520    -0.52800
C672        C  0.96309406  0.06697964  0.38969397     0.11300
H673        H  0.90578783  0.07684624  0.22939253     0.15900
H674        H  0.90261733  0.09472679  0.38847848     0.01600
H675        H  0.96894064  0.19432411  0.32458367     0.16200
H676        H  0.01536510  0.05173721  0.37133083     0.15900
C677        C  0.86676096  0.32241941  0.47050108     0.87700
C678        C  0.87338289  0.27147009  0.44757126    -0.52500
C679        C  0.89620051  0.27624900  0.41855185     0.10700
C680        C  0.90987659  0.33119585  0.41464995     0.21600
C681        C  0.91181884  0.34410031  0.50556117    -0.53200
C682        C  0.93440370  0.34835383  0.47618661     0.10800
C683        C  0.84554436  0.35743854  0.41932112    -0.52800
C684        C  0.86810654  0.36233491  0.38988051     0.11300
H685        H  0.86222516  0.23497838  0.45494560     0.15900
H686        H  0.92857428  0.33456821  0.39108197     0.01600
H687        H  0.92541538  0.35241501  0.05017933     0.16200
H688        H  0.81584196  0.37758840  0.40825411     0.15900
O689        O  0.81594913  0.51582983  0.31738348    -0.73200
O690        O  0.78267603  0.41307207  0.20326255    -0.73200
O691        O  0.81594459  0.41350663  0.31738472    -0.73300
O692        O  0.78268097  0.51626249  0.20325978    -0.73300
O693        O  0.84859207  0.51581624  0.21218763    -0.73200
O694        O  0.88185611  0.41306214  0.32631433    -0.73200
O695        O  0.84858759  0.41349307  0.21219196    -0.73200
O696        O  0.88186023  0.51625250  0.32631149    -0.73300
Ni697      Ni  0.79695640  0.46466831  0.25997903     1.25400
Ni698      Ni  0.86758025  0.46465557  0.26959494     1.25400
C699        C  0.85457525  0.53187608  0.34167489     0.89000
C700        C  0.80996128  0.39744750  0.18790039     0.88900
C701        C  0.85456965  0.39744968  0.34167704     0.89000
C702        C  0.80996717  0.53187379  0.18789565     0.89100
O703        O  0.98261834  0.01582850  0.06738684    -0.73200
O704        O  0.94934679  0.91307326  0.45326984    -0.73200
O705        O  0.98261670  0.91350728  0.06738903    -0.73300
O706        O  0.94934883  0.01625993  0.45326629    -0.73300
O707        O  0.68192644  0.01581750  0.46219276    -0.73200
O708        O  0.71519481  0.91306664  0.07631687    -0.73200
O709        O  0.68192484  0.91349617  0.46219766    -0.73200
O710        O  0.71519600  0.01625326  0.07631334    -0.73300
Ni711      Ni  0.96362643  0.96466761  0.00998470     1.25400
Ni712      Ni  0.70091684  0.96465809  0.01959851     1.25400
C713        C  0.68791112  0.03187422  0.09167753     0.89000
C714        C  0.97663196  0.89745100  0.43790703     0.88900
C715        C  0.68790933  0.89745389  0.09168065     0.89000
C716        C  0.97663409  0.03187169  0.43790139     0.89100
C717        C  0.92158498  0.19646102  0.38165559    -0.12000
C718        C  0.90958020  0.23283747  0.39787395    -0.13600
C719        C  0.97970033  0.35777023  0.50331903    -0.12000
C720        C  0.68482279  0.35777162  0.02626940    -0.13600
C721        C  0.84240216  0.31821432  0.50195048    -0.12000
C722        C  0.82211707  0.31821332  0.02761660    -0.13600
C723        C  0.81304708  0.07148581  0.25331556    -0.12000
C724        C  0.85150234  0.07148701  0.27625579    -0.13600
C725        C  0.67575582  0.11108483  0.25196589    -0.12000
C726        C  0.98879456  0.11108405  0.27761893    -0.13600
C727        C  0.74295271  0.19646149  0.14792241    -0.12000
C728        C  0.75495623  0.23283767  0.13170627    -0.13600
C729        C  0.90956383  0.69649480  0.39784083    -0.12000
C730        C  0.92156937  0.73287123  0.38162763    -0.13600
C731        C  0.68483644  0.57158740  0.02625825    -0.12000
C732        C  0.97971386  0.57158516  0.50330412    -0.13600
C733        C  0.82213660  0.61112707  0.02762682    -0.12000
C734        C  0.84241649  0.61112756  0.50195348    -0.13600
C735        C  0.85149593  0.85787053  0.27626612    -0.12000
C736        C  0.81304084  0.85786890  0.25332891    -0.13600
C737        C  0.98878469  0.81825678  0.27761356    -0.12000
C738        C  0.67575075  0.81825788  0.25196735    -0.13600
C739        C  0.74297518  0.73287221  0.14795507    -0.12000
C740        C  0.75497881  0.69649566  0.13173516    -0.13600
C741        C  0.70011578  0.82246118  0.72052802     0.87700
C742        C  0.70676387  0.77150596  0.69763390    -0.52500
C743        C  0.72958240  0.77628420  0.66861605     0.10700
C744        C  0.74323307  0.83123574  0.66468016     0.21600
C745        C  0.74516335  0.84417623  0.75557899    -0.53200
C746        C  0.76774848  0.84842901  0.72620424     0.10800
C747        C  0.67888595  0.85745187  0.66932666    -0.52800
C748        C  0.70144970  0.86234790  0.63988912     0.11300
H749        H  0.69561941  0.73501186  0.70502689     0.15900
H750        H  0.76193097  0.83460780  0.64111266     0.01600
H751        H  0.75875397  0.85251261  0.80019175     0.16200
H752        H  0.64917524  0.87758832  0.65824625     0.15900
C753        C  0.79778055  0.60692067  0.55908097     0.87700
C754        C  0.75271848  0.58525291  0.52401739    -0.52500
C755        C  0.73013417  0.58099736  0.55339222     0.10700
C756        C  0.75466610  0.59814055  0.61493369     0.21600
C757        C  0.79116897  0.65786695  0.58202629    -0.53200
C758        C  0.76835215  0.65308609  0.61104668     0.10800
C759        C  0.81899218  0.57188876  0.61025145    -0.52800
C760        C  0.79643082  0.56699117  0.63969340     0.11300
H761        H  0.73911906  0.57694638  0.97939653     0.15900
H762        H  0.73596898  0.59476755  0.63850227     0.01600
H763        H  0.80233233  0.69435901  0.57466042     0.16200
H764        H  0.84869145  0.55173420  0.62131278     0.15900
C765        C  0.96442187  0.82246030  0.80905652     0.87700
C766        C  0.95777890  0.77150479  0.83195131    -0.52500
C767        C  0.93496241  0.77628367  0.86097258     0.10700
C768        C  0.92130955  0.83123643  0.86491210     0.21600
C769        C  0.91937223  0.84417969  0.77400977    -0.53200
C770        C  0.89678963  0.84843287  0.80338837     0.10800
C771        C  0.98565199  0.85744742  0.86025817    -0.52800
C772        C  0.96309100  0.86234478  0.88969973     0.11300
H773        H  0.96892326  0.73501007  0.82455392     0.15900
H774        H  0.90261392  0.83460943  0.88848316     0.01600
H775        H  0.90577789  0.85251716  0.72939631     0.16200
H776        H  0.01536023  0.87758207  0.87133483     0.15900
C777        C  0.86676909  0.60692076  0.97049438     0.87700
C778        C  0.91183305  0.58524792  0.00555233    -0.52500
C779        C  0.93441411  0.58099130  0.97617278     0.10700
C780        C  0.90987703  0.59813775  0.91463208     0.21600
C781        C  0.87337583  0.65786708  0.94754838    -0.53200
C782        C  0.89618962  0.65308488  0.91852330     0.10800
C783        C  0.84555608  0.57189247  0.91932398    -0.52800
C784        C  0.86811384  0.56699286  0.88987702     0.11300
H785        H  0.92543647  0.57694111  0.55017431     0.15900
H786        H  0.92857115  0.59476292  0.89105943     0.01600
H787        H  0.86221285  0.69436005  0.95491892     0.16200
H788        H  0.81585858  0.55174050  0.90826682     0.15900
C789        C  0.70011635  0.10687951  0.72051921     0.87700
C790        C  0.74516959  0.08517249  0.75556966    -0.52500
C791        C  0.76775202  0.08091706  0.72619111     0.10700
C792        C  0.74322811  0.09809953  0.66466278     0.21600
C793        C  0.70675022  0.15783180  0.69760999    -0.53200
C794        C  0.72956619  0.15305085  0.66858812     0.10800
C795        C  0.67889104  0.07188061  0.66932652    -0.52800
C796        C  0.70145142  0.06698210  0.63988384     0.11300
H797        H  0.75876554  0.07684358  0.80018460     0.15900
H798        H  0.76192370  0.09472571  0.64109177     0.01600
H799        H  0.69560050  0.19432632  0.70499840     0.16200
H800        H  0.64918499  0.05174219  0.65825433     0.15900
C801        C  0.79776223  0.32241837  0.55907177     0.87700
C802        C  0.79114680  0.27146914  0.58200397    -0.52500
C803        C  0.76833305  0.27624916  0.61102920     0.10700
C804        C  0.75465419  0.33119715  0.61493398     0.21600
C805        C  0.75270178  0.34410273  0.52401758    -0.53200
C806        C  0.73012080  0.34835725  0.55339772     0.10600
C807        C  0.81898006  0.35743506  0.61025092    -0.52800
C808        C  0.79642201  0.36233304  0.63969728     0.11300
H809        H  0.80230506  0.23497664  0.57462588     0.15900
H810        H  0.73596002  0.33457033  0.63850701     0.01600
H811        H  0.73910060  0.35241828  0.97939826     0.16200
H812        H  0.84867996  0.37758353  0.62131270     0.15900
C813        C  0.96443168  0.10687824  0.80906179     0.87700
C814        C  0.91938070  0.08517458  0.77400721    -0.52500
C815        C  0.89679595  0.08091974  0.80338214     0.10700
C816        C  0.92131522  0.09809997  0.86491087     0.21600
C817        C  0.95779211  0.15783046  0.83196956    -0.53200
C818        C  0.93497400  0.15305031  0.86098791     0.10800
C819        C  0.98565733  0.07187687  0.86025528    -0.52800
C820        C  0.96309421  0.06697946  0.88969390     0.11300
H821        H  0.90578814  0.07684574  0.72939213     0.15900
H822        H  0.90261760  0.09472703  0.88847853     0.01600
H823        H  0.96894128  0.19432413  0.82458434     0.16200
H824        H  0.01536528  0.05173635  0.87133072     0.15900
C825        C  0.86676061  0.32241929  0.97050095     0.87700
C826        C  0.87338272  0.27146979  0.94757144    -0.52500
C827        C  0.89620029  0.27624873  0.91855215     0.10700
C828        C  0.90987626  0.33119574  0.91465018     0.21600
C829        C  0.91181875  0.34410019  0.00556106    -0.53200
C830        C  0.93440362  0.34835357  0.97618673     0.10800
C831        C  0.84554377  0.35743869  0.91932098    -0.52800
C832        C  0.86810605  0.36233506  0.88988063     0.11300
H833        H  0.86222468  0.23497784  0.95494574     0.15900
H834        H  0.92857357  0.33456764  0.89108218     0.01600
H835        H  0.92541537  0.35241518  0.55017946     0.16200
H836        H  0.81584092  0.37758900  0.90825392     0.15900
O837        O  0.81594910  0.51582985  0.81738353    -0.73200
O838        O  0.78267618  0.41307233  0.70326257    -0.73200
O839        O  0.81594452  0.41350660  0.81738471    -0.73300
O840        O  0.78268098  0.51626255  0.70325962    -0.73300
O841        O  0.84859206  0.51581639  0.71218789    -0.73200
O842        O  0.88185601  0.41306212  0.82631429    -0.73200
O843        O  0.84858769  0.41349318  0.71219194    -0.73200
O844        O  0.88186022  0.51625242  0.82631166    -0.73300
Ni845      Ni  0.79695650  0.46466835  0.75997905     1.25400
Ni846      Ni  0.86758022  0.46465556  0.76959500     1.25400
C847        C  0.85457520  0.53187620  0.84167488     0.89000
C848        C  0.80996139  0.39744760  0.68790042     0.88900
C849        C  0.85456958  0.39744979  0.84167715     0.89000
C850        C  0.80996722  0.53187418  0.68789586     0.89100
O851        O  0.98261845  0.01582863  0.56738681    -0.73200
O852        O  0.94934687  0.91307318  0.95327004    -0.73200
O853        O  0.98261676  0.91350732  0.56738905    -0.73300
O854        O  0.94934888  0.01625972  0.95326631    -0.73300
O855        O  0.68192643  0.01581755  0.96219282    -0.73200
O856        O  0.71519480  0.91306651  0.57631692    -0.73200
O857        O  0.68192507  0.91349627  0.96219785    -0.73200
O858        O  0.71519599  0.01625311  0.57631330    -0.73300
Ni859      Ni  0.96362640  0.96466774  0.50998469     1.25400
Ni860      Ni  0.70091681  0.96465803  0.51959848     1.25400
C861        C  0.68791110  0.03187425  0.59167736     0.89000
C862        C  0.97663206  0.89745099  0.93790721     0.88900
C863        C  0.68790930  0.89745380  0.59168069     0.89000
C864        C  0.97663414  0.03187167  0.93790151     0.89100
C865        C  0.92158507  0.19646108  0.88165546    -0.12000
C866        C  0.90957995  0.23283727  0.89787385    -0.13600
C867        C  0.97970022  0.35777031  0.00331896    -0.12000
C868        C  0.68482269  0.35777143  0.52626952    -0.13600
C869        C  0.84240224  0.31821420  0.00195067    -0.12000
C870        C  0.82211710  0.31821320  0.52761661    -0.13600
C871        C  0.81304708  0.07148602  0.75331546    -0.12000
C872        C  0.85150238  0.07148708  0.77625581    -0.13600
C873        C  0.67575594  0.11108499  0.75196616    -0.12000
C874        C  0.98879456  0.11108396  0.77761886    -0.13600
C875        C  0.74295260  0.19646169  0.64792236    -0.12000
C876        C  0.75495618  0.23283778  0.63170618    -0.13600
C877        C  0.90956389  0.69649456  0.89784072    -0.12000
C878        C  0.92156928  0.73287111  0.88162760    -0.13600
C879        C  0.68483642  0.57158728  0.52625825    -0.12000
C880        C  0.97971373  0.57158503  0.00330405    -0.13600
C881        C  0.82213650  0.61112722  0.52762697    -0.12000
C882        C  0.84241662  0.61112785  0.00195341    -0.13600
C883        C  0.85149585  0.85787033  0.77626617    -0.12000
C884        C  0.81304078  0.85786872  0.75332904    -0.13600
C885        C  0.98878460  0.81825690  0.77761330    -0.12000
C886        C  0.67575077  0.81825756  0.75196745    -0.13600
C887        C  0.74297513  0.73287219  0.64795502    -0.12000
C888        C  0.75497882  0.69649585  0.63173501    -0.13600
loop_ 
_geom_bond_atom_site_label_1 
_geom_bond_atom_site_label_2 
_geom_bond_distance 
_geom_bond_site_symmetry_2 
_ccdc_geom_bond_type 
C1            C2   1.532       .  S
C1            C7   1.529       .  S
C1            C5   1.535       .  S
C1          C146   1.465       .  S
C2            H9   1.087       .  S
C2            C3   1.364       .  D
C3            C4   1.537       .  S
C3          C147   1.438       .  S
C4            C8   1.542       .  S
C4            C6   1.535       .  S
C4           H10   1.112       .  S
C5           H11   1.087       .  S
C5            C6   1.364       .  D
C6          C144   1.441       .  S
C7           H12   1.087   1_455  S
C7            C8   1.366       .  D
C8          C123   1.475       .  S
C13          C14   1.535       .  S
C13          C19   1.529       .  S
C13          C17   1.532       .  S
C13         C141   1.465       .  S
C14         H169   1.087   1_554  S
C14          C15   1.364       .  D
C15          C16   1.535       .  S
C15         C139   1.441       .  S
C16          C20   1.542       .  S
C16          C18   1.537       .  S
C16          H22   1.112       .  S
C17          H23   1.087       .  S
C17          C18   1.364       .  D
C18         C148   1.438       .  S
C19          H24   1.087       .  S
C19          C20   1.366       .  D
C20         C110   1.475       .  S
H21         C162   1.087       .  S
C25          C26   1.532       .  S
C25          C31   1.529       .  S
C25          C29   1.535       .  S
C25         C145   1.465       .  S
C26          H33   1.087       .  S
C26          C27   1.364       .  D
C27          C28   1.537       .  S
C27         C138   1.438       .  S
C28          C32   1.542       .  S
C28          C30   1.535       .  S
C28          H34   1.112       .  S
C29          H35   1.087       .  S
C29          C30   1.364       .  D
C30         C143   1.441       .  S
C31          H36   1.087       .  S
C31          C32   1.366       .  D
C32         C122   1.475       .  S
C37          C38   1.535       .  S
C37          C43   1.529       .  S
C37          C41   1.532       .  S
C37         C142   1.465       .  S
C38         H193   1.087       .  S
C38          C39   1.364       .  D
C39          C40   1.535       .  S
C39         C140   1.441       .  S
C40          C44   1.542       .  S
C40          C42   1.537       .  S
C40          H46   1.112       .  S
C41          H47   1.087       .  S
C41          C42   1.364       .  D
C42         C137   1.438       .  S
C43          H48   1.087       .  S
C43          C44   1.366       .  D
C44         C107   1.475       .  S
H45         C186   1.087       .  S
C49          C50   1.535       .  S
C49          C55   1.529       .  S
C49          C53   1.532       .  S
C49         C133   1.465       .  S
C50          H57   1.087       .  S
C50          C51   1.364       .  D
C51          C52   1.535       .  S
C51         C131   1.441       .  S
C52          C56   1.542       .  S
C52          C54   1.537       .  S
C52          H58   1.112       .  S
C53          H59   1.087       .  S
C53          C54   1.364       .  D
C54         C135   1.438       .  S
C55          H60   1.087   1_455  S
C55          C56   1.366       .  D
C56         C121   1.475       .  S
C61          C62   1.532       .  S
C61          C67   1.529       .  S
C61          C65   1.535       .  S
C61         C130   1.465       .  S
C62          H69   1.087       .  S
C62          C63   1.364       .  D
C63          C64   1.537       .  S
C63         C136   1.438       .  S
C64          C68   1.542       .  S
C64          C66   1.535       .  S
C64          H70   1.112       .  S
C65         H219   1.087   1_554  S
C65          C66   1.364       .  D
C66         C128   1.441       .  S
C67          H72   1.087       .  S
C67          C68   1.366       .  D
C68         C108   1.475       .  S
H71         C213   1.087       .  S
C73          C74   1.535       .  S
C73          C79   1.529       .  S
C73          C77   1.532       .  S
C73         C134   1.465       .  S
C74          H81   1.087       .  S
C74          C75   1.364       .  D
C75          C76   1.535       .  S
C75         C132   1.441       .  S
C76          C80   1.542       .  S
C76          C78   1.537       .  S
C76          H82   1.112       .  S
C77          H83   1.087       .  S
C77          C78   1.364       .  D
C78         C125   1.438       .  S
C79          H84   1.087       .  S
C79          C80   1.366       .  D
C80         C124   1.475       .  S
C85          C86   1.532       .  S
C85          C91   1.529       .  S
C85          C89   1.535       .  S
C85         C129   1.465       .  S
C86          H93   1.087       .  S
C86          C87   1.364       .  D
C87          C88   1.537       .  S
C87         C126   1.438       .  S
C88          C92   1.542       .  S
C88          C90   1.535       .  S
C88          H94   1.112       .  S
C89         H243   1.087       .  S
C89          C90   1.364       .  D
C90         C127   1.441       .  S
C91          H96   1.087       .  S
C91          C92   1.366       .  D
C92         C109   1.475       .  S
H95         C237   1.087       .  S
O97        Ni105   1.914       .  S
O97         C107   1.281       .  A
O98        Ni105   1.920       .  S
O98         C108   1.281       .  A
O99        Ni105   1.914       .  S
O99         C109   1.281       .  A
O100       Ni105   1.920       .  S
O100        C110   1.281       .  A
O101       Ni106   1.914       .  S
O101        C110   1.281       .  A
O102       Ni106   1.920       .  S
O102        C109   1.281       .  A
O103       Ni106   1.914       .  S
O103        C108   1.281       .  A
O104       Ni106   1.920       .  S
O104        C107   1.281       .  A
Ni105      Ni106   2.390       .  S
O111       Ni119   1.914   1_545  S
O111        C417   1.281       .  A
O112       Ni267   1.920       .  S
O112        C122   1.280       .  A
O113       Ni119   1.914       .  S
O113        C419   1.281       .  A
O114       Ni267   1.920   1_545  S
O114        C124   1.281       .  A
O115       Ni268   1.914   1_545  S
O115        C716   1.281   1_455  A
O116       Ni120   1.920       .  S
O116        C123   1.280       .  A
O117       Ni268   1.914       .  S
O117        C714   1.281   1_455  A
O118       Ni120   1.920   1_545  S
O118        C121   1.280       .  A
Ni119       O260   1.920   1_554  S
Ni119       O262   1.920   1_564  S
Ni119      Ni416   2.390       .  S
Ni120       O263   1.914   1_564  S
Ni120       O265   1.914   1_554  S
Ni120      Ni711   2.390   1_455  S
C121        O703   1.281   1_455  A
C122        O413   1.281       .  A
C123        O705   1.281   1_455  A
C124        O411   1.281       .  A
C125        C126   1.204       .  T
C127        C572   1.205       .  T
C128        C867   1.205   1_455  T
C129        C278   1.204       .  T
C130        C277   1.204       .  T
C131        C132   1.205       .  T
C133        C726   1.204   1_455  T
C134        C429   1.204       .  T
C135        C136   1.204       .  T
C137        C138   1.204       .  T
C139        C880   1.205   1_455  T
C140        C583   1.205       .  T
C141        C290   1.204       .  T
C142        C289   1.204       .  T
C143        C144   1.205       .  T
C145        C442   1.204       .  T
C146        C737   1.204   1_455  T
C147        C148   1.204       .  T
C149        C150   1.532       .  S
C149        C155   1.529       .  S
C149        C153   1.535       .  S
C149        C294   1.465       .  S
C150        H157   1.087       .  S
C150        C151   1.364       .  D
C151        C152   1.537       .  S
C151        C295   1.438       .  S
C152        C156   1.542       .  S
C152        C154   1.535       .  S
C152        H158   1.112       .  S
C153        H159   1.087       .  S
C153        C154   1.364       .  D
C154        C292   1.441       .  S
C155        H160   1.087   1_455  S
C155        C156   1.366       .  D
C156        C271   1.475       .  S
C161        C162   1.535       .  S
C161        C167   1.529       .  S
C161        C165   1.532       .  S
C161        C289   1.465       .  S
C162        C163   1.364       .  D
C163        C164   1.535       .  S
C163        C287   1.441       .  S
C164        C168   1.542       .  S
C164        C166   1.537       .  S
C164        H170   1.112       .  S
C165        H171   1.087       .  S
C165        C166   1.364       .  D
C166        C296   1.438       .  S
C167        H172   1.087       .  S
C167        C168   1.366       .  D
C168        C258   1.475       .  S
C173        C174   1.532       .  S
C173        C179   1.529       .  S
C173        C177   1.535       .  S
C173        C293   1.465       .  S
C174        H181   1.087       .  S
C174        C175   1.364       .  D
C175        C176   1.537       .  S
C175        C286   1.438       .  S
C176        C180   1.542       .  S
C176        C178   1.535       .  S
C176        H182   1.112       .  S
C177        H183   1.087       .  S
C177        C178   1.364       .  D
C178        C291   1.441       .  S
C179        H184   1.087       .  S
C179        C180   1.366       .  D
C180        C270   1.475       .  S
C185        C186   1.535   1_556  S
C185        C191   1.529       .  S
C185        C189   1.532       .  S
C185        C290   1.465   1_556  S
C186        C187   1.364   1_554  D
C187        C188   1.535       .  S
C187        C288   1.441   1_556  S
C188        C192   1.542       .  S
C188        C190   1.537       .  S
C188        H194   1.112       .  S
C189        H195   1.087       .  S
C189        C190   1.364       .  D
C190        C285   1.438       .  S
C191        H196   1.087       .  S
C191        C192   1.366       .  D
C192        C255   1.475       .  S
C197        C198   1.535       .  S
C197        C203   1.529       .  S
C197        C201   1.532       .  S
C197        C281   1.465       .  S
C198        H205   1.087       .  S
C198        C199   1.364       .  D
C199        C200   1.535       .  S
C199        C279   1.441       .  S
C200        C204   1.542       .  S
C200        C202   1.537       .  S
C200        H206   1.112       .  S
C201        H207   1.087       .  S
C201        C202   1.364       .  D
C202        C283   1.438       .  S
C203        H208   1.087   1_455  S
C203        C204   1.366       .  D
C204        C269   1.475       .  S
C209        C210   1.532       .  S
C209        C215   1.529       .  S
C209        C213   1.535       .  S
C209        C278   1.465       .  S
C210        H217   1.087       .  S
C210        C211   1.364       .  D
C211        C212   1.537       .  S
C211        C284   1.438       .  S
C212        C216   1.542       .  S
C212        C214   1.535       .  S
C212        H218   1.112       .  S
C213        C214   1.364       .  D
C214        C276   1.441       .  S
C215        H220   1.087       .  S
C215        C216   1.366       .  D
C216        C256   1.475       .  S
C221        C222   1.535       .  S
C221        C227   1.529       .  S
C221        C225   1.532       .  S
C221        C282   1.465       .  S
C222        H229   1.087       .  S
C222        C223   1.364       .  D
C223        C224   1.535       .  S
C223        C280   1.441       .  S
C224        C228   1.542       .  S
C224        C226   1.537       .  S
C224        H230   1.112       .  S
C225        H231   1.087       .  S
C225        C226   1.364       .  D
C226        C273   1.438       .  S
C227        H232   1.087       .  S
C227        C228   1.366       .  D
C228        C272   1.475       .  S
C233        C234   1.532       .  S
C233        C239   1.529       .  S
C233        C237   1.535   1_556  S
C233        C277   1.465   1_556  S
C234        H241   1.087       .  S
C234        C235   1.364       .  D
C235        C236   1.537       .  S
C235        C274   1.438       .  S
C236        C240   1.542       .  S
C236        C238   1.535       .  S
C236        H242   1.112       .  S
C237        C238   1.364   1_554  D
C238        C275   1.441   1_556  S
C239        H244   1.087       .  S
C239        C240   1.366       .  D
C240        C257   1.475       .  S
O245       Ni253   1.914       .  S
O245        C255   1.281       .  A
O246       Ni253   1.920       .  S
O246        C256   1.281       .  A
O247       Ni253   1.914       .  S
O247        C257   1.281       .  A
O248       Ni253   1.920       .  S
O248        C258   1.281       .  A
O249       Ni254   1.914       .  S
O249        C258   1.281       .  A
O250       Ni254   1.920       .  S
O250        C257   1.281       .  A
O251       Ni254   1.914       .  S
O251        C256   1.281       .  A
O252       Ni254   1.920       .  S
O252        C255   1.281       .  A
Ni253      Ni254   2.390       .  S
O259       Ni267   1.914   1_545  S
O259        C565   1.281       .  A
O260        C270   1.280       .  A
O261       Ni267   1.914       .  S
O261        C567   1.281       .  A
O262        C272   1.281       .  A
O263        C864   1.281   1_455  A
O264       Ni268   1.920       .  S
O264        C271   1.280       .  A
O265        C862   1.281   1_455  A
O266       Ni268   1.920   1_545  S
O266        C269   1.280       .  A
Ni267      Ni564   2.390       .  S
Ni268      Ni859   2.390   1_455  S
C269        O851   1.281   1_455  A
C270        O561   1.281       .  A
C271        O853   1.281   1_455  A
C272        O559   1.281       .  A
C273        C274   1.204       .  T
C275        C424   1.205       .  T
C276        C719   1.205   1_455  T
C279        C280   1.205       .  T
C281        C874   1.204   1_455  T
C282        C577   1.204       .  T
C283        C284   1.204       .  T
C285        C286   1.204       .  T
C287        C732   1.205   1_455  T
C288        C435   1.205       .  T
C291        C292   1.205       .  T
C293        C590   1.204       .  T
C294        C885   1.204   1_455  T
C295        C296   1.204       .  T
C297        C298   1.532       .  S
C297        C303   1.529       .  S
C297        C301   1.535       .  S
C297        C442   1.465       .  S
C298        H305   1.087       .  S
C298        C299   1.364       .  D
C299        C300   1.537       .  S
C299        C443   1.438       .  S
C300        C304   1.542       .  S
C300        C302   1.535       .  S
C300        H306   1.112       .  S
C301        H307   1.087       .  S
C301        C302   1.364       .  D
C302        C440   1.441       .  S
C303        H308   1.087       .  S
C303        C304   1.366       .  D
C304        C419   1.475       .  S
C309        C310   1.535       .  S
C309        C315   1.529       .  S
C309        C313   1.532       .  S
C309        C437   1.465       .  S
C310        H465   1.087   1_554  S
C310        C311   1.364       .  D
C311        C312   1.535       .  S
C311        C435   1.441       .  S
C312        C316   1.542       .  S
C312        C314   1.537       .  S
C312        H318   1.112       .  S
C313        H319   1.087       .  S
C313        C314   1.364       .  D
C314        C444   1.438       .  S
C315        H320   1.087       .  S
C315        C316   1.366       .  D
C316        C406   1.475       .  S
H317        C458   1.087       .  S
C321        C322   1.532       .  S
C321        C327   1.529       .  S
C321        C325   1.535       .  S
C321        C441   1.465       .  S
C322        H329   1.087       .  S
C322        C323   1.364       .  D
C323        C324   1.537       .  S
C323        C434   1.438       .  S
C324        C328   1.542       .  S
C324        C326   1.535       .  S
C324        H330   1.112       .  S
C325        H331   1.087       .  S
C325        C326   1.364       .  D
C326        C439   1.441       .  S
C327        H332   1.087       .  S
C327        C328   1.366       .  D
C328        C418   1.475       .  S
C333        C334   1.535       .  S
C333        C339   1.529       .  S
C333        C337   1.532       .  S
C333        C438   1.465       .  S
C334        H489   1.087       .  S
C334        C335   1.364       .  D
C335        C336   1.535       .  S
C335        C436   1.441       .  S
C336        C340   1.542       .  S
C336        C338   1.537       .  S
C336        H342   1.112       .  S
C337        H343   1.087       .  S
C337        C338   1.364       .  D
C338        C433   1.438       .  S
C339        H344   1.087       .  S
C339        C340   1.366       .  D
C340        C403   1.475       .  S
H341        C482   1.087       .  S
C345        C346   1.535       .  S
C345        C351   1.529       .  S
C345        C349   1.532       .  S
C345        C429   1.465       .  S
C346        H353   1.087       .  S
C346        C347   1.364       .  D
C347        C348   1.535       .  S
C347        C427   1.441       .  S
C348        C352   1.542       .  S
C348        C350   1.537       .  S
C348        H354   1.112       .  S
C349        H355   1.087       .  S
C349        C350   1.364       .  D
C350        C431   1.438       .  S
C351        H356   1.087       .  S
C351        C352   1.366       .  D
C352        C417   1.475       .  S
C357        C358   1.532       .  S
C357        C363   1.529       .  S
C357        C361   1.535       .  S
C357        C426   1.465       .  S
C358        H365   1.087       .  S
C358        C359   1.364       .  D
C359        C360   1.537       .  S
C359        C432   1.438       .  S
C360        C364   1.542       .  S
C360        C362   1.535       .  S
C360        H366   1.112       .  S
C361        H515   1.087   1_554  S
C361        C362   1.364       .  D
C362        C424   1.441       .  S
C363        H368   1.087       .  S
C363        C364   1.366       .  D
C364        C404   1.475       .  S
H367        C509   1.087       .  S
C369        C370   1.535       .  S
C369        C375   1.529       .  S
C369        C373   1.532       .  S
C369        C430   1.465       .  S
C370        H377   1.087       .  S
C370        C371   1.364       .  D
C371        C372   1.535       .  S
C371        C428   1.441       .  S
C372        C376   1.542       .  S
C372        C374   1.537       .  S
C372        H378   1.112       .  S
C373        H379   1.087       .  S
C373        C374   1.364       .  D
C374        C421   1.438       .  S
C375        H380   1.087       .  S
C375        C376   1.366       .  D
C376        C420   1.475       .  S
C381        C382   1.532       .  S
C381        C387   1.529       .  S
C381        C385   1.535       .  S
C381        C425   1.465       .  S
C382        H389   1.087       .  S
C382        C383   1.364       .  D
C383        C384   1.537       .  S
C383        C422   1.438       .  S
C384        C388   1.542       .  S
C384        C386   1.535       .  S
C384        H390   1.112       .  S
C385        H539   1.087       .  S
C385        C386   1.364       .  D
C386        C423   1.441       .  S
C387        H392   1.087       .  S
C387        C388   1.366       .  D
C388        C405   1.475       .  S
H391        C533   1.087       .  S
O393       Ni401   1.914       .  S
O393        C403   1.281       .  A
O394       Ni401   1.920       .  S
O394        C404   1.281       .  A
O395       Ni401   1.914       .  S
O395        C405   1.281       .  A
O396       Ni401   1.920       .  S
O396        C406   1.281       .  A
O397       Ni402   1.914       .  S
O397        C406   1.281       .  A
O398       Ni402   1.920       .  S
O398        C405   1.281       .  A
O399       Ni402   1.914       .  S
O399        C404   1.281       .  A
O400       Ni402   1.920       .  S
O400        C403   1.281       .  A
Ni401      Ni402   2.390       .  S
O407       Ni415   1.914   1_545  S
O407        C713   1.281       .  A
O408       Ni563   1.920       .  S
O408        C418   1.280       .  A
O409       Ni415   1.914       .  S
O409        C715   1.281       .  A
O410       Ni563   1.920   1_545  S
O410        C420   1.280       .  A
O411       Ni564   1.914   1_545  S
O412       Ni416   1.920       .  S
O412        C419   1.280       .  A
O413       Ni564   1.914       .  S
O414       Ni416   1.920   1_545  S
O414        C417   1.280       .  A
Ni415       O556   1.920   1_554  S
Ni415       O558   1.920   1_564  S
Ni415      Ni712   2.390       .  S
Ni416       O559   1.914   1_564  S
Ni416       O561   1.914   1_554  S
C418        O709   1.281       .  A
C420        O707   1.281       .  A
C421        C422   1.204       .  T
C423        C868   1.205       .  T
C425        C574   1.204       .  T
C426        C573   1.204       .  T
C427        C428   1.205       .  T
C430        C725   1.204       .  T
C431        C432   1.204       .  T
C433        C434   1.204       .  T
C436        C879   1.205       .  T
C437        C586   1.204       .  T
C438        C585   1.204       .  T
C439        C440   1.205       .  T
C441        C738   1.204       .  T
C443        C444   1.204       .  T
C445        C446   1.532       .  S
C445        C451   1.529       .  S
C445        C449   1.535       .  S
C445        C590   1.465       .  S
C446        H453   1.087       .  S
C446        C447   1.364       .  D
C447        C448   1.537       .  S
C447        C591   1.438       .  S
C448        C452   1.542       .  S
C448        C450   1.535       .  S
C448        H454   1.112       .  S
C449        H455   1.087       .  S
C449        C450   1.364       .  D
C450        C588   1.441       .  S
C451        H456   1.087       .  S
C451        C452   1.366       .  D
C452        C567   1.475       .  S
C457        C458   1.535       .  S
C457        C463   1.529       .  S
C457        C461   1.532       .  S
C457        C585   1.465       .  S
C458        C459   1.364       .  D
C459        C460   1.535       .  S
C459        C583   1.441       .  S
C460        C464   1.542       .  S
C460        C462   1.537       .  S
C460        H466   1.112       .  S
C461        H467   1.087       .  S
C461        C462   1.364       .  D
C462        C592   1.438       .  S
C463        H468   1.087       .  S
C463        C464   1.366       .  D
C464        C554   1.475       .  S
C469        C470   1.532       .  S
C469        C475   1.529       .  S
C469        C473   1.535       .  S
C469        C589   1.465       .  S
C470        H477   1.087       .  S
C470        C471   1.364       .  D
C471        C472   1.537       .  S
C471        C582   1.438       .  S
C472        C476   1.542       .  S
C472        C474   1.535       .  S
C472        H478   1.112       .  S
C473        H479   1.087       .  S
C473        C474   1.364       .  D
C474        C587   1.441       .  S
C475        H480   1.087       .  S
C475        C476   1.366       .  D
C476        C566   1.475       .  S
C481        C482   1.535   1_556  S
C481        C487   1.529       .  S
C481        C485   1.532       .  S
C481        C586   1.465   1_556  S
C482        C483   1.364   1_554  D
C483        C484   1.535       .  S
C483        C584   1.441   1_556  S
C484        C488   1.542       .  S
C484        C486   1.537       .  S
C484        H490   1.112       .  S
C485        H491   1.087       .  S
C485        C486   1.364       .  D
C486        C581   1.438       .  S
C487        H492   1.087       .  S
C487        C488   1.366       .  D
C488        C551   1.475       .  S
C493        C494   1.535       .  S
C493        C499   1.529       .  S
C493        C497   1.532       .  S
C493        C577   1.465       .  S
C494        H501   1.087       .  S
C494        C495   1.364       .  D
C495        C496   1.535       .  S
C495        C575   1.441       .  S
C496        C500   1.542       .  S
C496        C498   1.537       .  S
C496        H502   1.112       .  S
C497        H503   1.087       .  S
C497        C498   1.364       .  D
C498        C579   1.438       .  S
C499        H504   1.087       .  S
C499        C500   1.366       .  D
C500        C565   1.475       .  S
C505        C506   1.532       .  S
C505        C511   1.529       .  S
C505        C509   1.535       .  S
C505        C574   1.465       .  S
C506        H513   1.087       .  S
C506        C507   1.364       .  D
C507        C508   1.537       .  S
C507        C580   1.438       .  S
C508        C512   1.542       .  S
C508        C510   1.535       .  S
C508        H514   1.112       .  S
C509        C510   1.364       .  D
C510        C572   1.441       .  S
C511        H516   1.087       .  S
C511        C512   1.366       .  D
C512        C552   1.475       .  S
C517        C518   1.535       .  S
C517        C523   1.529       .  S
C517        C521   1.532       .  S
C517        C578   1.465       .  S
C518        H525   1.087       .  S
C518        C519   1.364       .  D
C519        C520   1.535       .  S
C519        C576   1.441       .  S
C520        C524   1.542       .  S
C520        C522   1.537       .  S
C520        H526   1.112       .  S
C521        H527   1.087       .  S
C521        C522   1.364       .  D
C522        C569   1.438       .  S
C523        H528   1.087       .  S
C523        C524   1.366       .  D
C524        C568   1.475       .  S
C529        C530   1.532       .  S
C529        C535   1.529       .  S
C529        C533   1.535   1_556  S
C529        C573   1.465   1_556  S
C530        H537   1.087       .  S
C530        C531   1.364       .  D
C531        C532   1.537       .  S
C531        C570   1.438       .  S
C532        C536   1.542       .  S
C532        C534   1.535       .  S
C532        H538   1.112       .  S
C533        C534   1.364   1_554  D
C534        C571   1.441   1_556  S
C535        H540   1.087       .  S
C535        C536   1.366       .  D
C536        C553   1.475       .  S
O541       Ni549   1.914       .  S
O541        C551   1.281       .  A
O542       Ni549   1.920       .  S
O542        C552   1.281       .  A
O543       Ni549   1.914       .  S
O543        C553   1.281       .  A
O544       Ni549   1.920       .  S
O544        C554   1.281       .  A
O545       Ni550   1.914       .  S
O545        C554   1.281       .  A
O546       Ni550   1.920       .  S
O546        C553   1.281       .  A
O547       Ni550   1.914       .  S
O547        C552   1.281       .  A
O548       Ni550   1.920       .  S
O548        C551   1.281       .  A
Ni549      Ni550   2.390       .  S
O555       Ni563   1.914   1_545  S
O555        C861   1.281       .  A
O556        C566   1.280       .  A
O557       Ni563   1.914       .  S
O557        C863   1.281       .  A
O558        C568   1.281       .  A
O560       Ni564   1.920       .  S
O560        C567   1.280       .  A
O562       Ni564   1.920   1_545  S
O562        C565   1.281       .  A
Ni563      Ni860   2.390       .  S
C566        O857   1.281       .  A
C568        O855   1.281       .  A
C569        C570   1.204       .  T
C571        C720   1.205       .  T
C575        C576   1.205       .  T
C578        C873   1.204       .  T
C579        C580   1.204       .  T
C581        C582   1.204       .  T
C584        C731   1.205       .  T
C587        C588   1.205       .  T
C589        C886   1.204       .  T
C591        C592   1.204       .  T
C593        C594   1.532       .  S
C593        C599   1.529       .  S
C593        C597   1.535       .  S
C593        C738   1.465       .  S
C594        H601   1.087       .  S
C594        C595   1.364       .  D
C595        C596   1.537       .  S
C595        C739   1.438       .  S
C596        C600   1.542       .  S
C596        C598   1.535       .  S
C596        H602   1.112       .  S
C597        H603   1.087       .  S
C597        C598   1.364       .  D
C598        C736   1.441       .  S
C599        H604   1.087       .  S
C599        C600   1.366       .  D
C600        C715   1.475       .  S
C605        C606   1.535       .  S
C605        C611   1.529       .  S
C605        C609   1.532       .  S
C605        C733   1.465       .  S
C606        H761   1.087   1_554  S
C606        C607   1.364       .  D
C607        C608   1.535       .  S
C607        C731   1.441       .  S
C608        C612   1.542       .  S
C608        C610   1.537       .  S
C608        H614   1.112       .  S
C609        H615   1.087       .  S
C609        C610   1.364       .  D
C610        C740   1.438       .  S
C611        H616   1.087       .  S
C611        C612   1.366       .  D
C612        C702   1.475       .  S
H613        C754   1.087       .  S
C617        C618   1.532       .  S
C617        C623   1.529       .  S
C617        C621   1.535       .  S
C617        C737   1.465       .  S
C618        H625   1.087       .  S
C618        C619   1.364       .  D
C619        C620   1.537       .  S
C619        C730   1.438       .  S
C620        C624   1.542       .  S
C620        C622   1.535       .  S
C620        H626   1.112       .  S
C621        H627   1.087       .  S
C621        C622   1.364       .  D
C622        C735   1.441       .  S
C623        H628   1.087   1_655  S
C623        C624   1.366       .  D
C624        C714   1.475       .  S
C629        C630   1.535       .  S
C629        C635   1.529       .  S
C629        C633   1.532       .  S
C629        C734   1.465       .  S
C630        H785   1.087       .  S
C630        C631   1.364       .  D
C631        C632   1.535       .  S
C631        C732   1.441       .  S
C632        C636   1.542       .  S
C632        C634   1.537       .  S
C632        H638   1.112       .  S
C633        H639   1.087       .  S
C633        C634   1.364       .  D
C634        C729   1.438       .  S
C635        H640   1.087       .  S
C635        C636   1.366       .  D
C636        C699   1.475       .  S
H637        C778   1.087       .  S
C641        C642   1.535       .  S
C641        C647   1.529       .  S
C641        C645   1.532       .  S
C641        C725   1.465       .  S
C642        H649   1.087       .  S
C642        C643   1.364       .  D
C643        C644   1.535       .  S
C643        C723   1.441       .  S
C644        C648   1.542       .  S
C644        C646   1.537       .  S
C644        H650   1.112       .  S
C645        H651   1.087       .  S
C645        C646   1.364       .  D
C646        C727   1.438       .  S
C647        H652   1.087       .  S
C647        C648   1.366       .  D
C648        C713   1.475       .  S
C653        C654   1.532       .  S
C653        C659   1.529       .  S
C653        C657   1.535       .  S
C653        C722   1.465       .  S
C654        H661   1.087       .  S
C654        C655   1.364       .  D
C655        C656   1.537       .  S
C655        C728   1.438       .  S
C656        C660   1.542       .  S
C656        C658   1.535       .  S
C656        H662   1.112       .  S
C657        H811   1.087   1_554  S
C657        C658   1.364       .  D
C658        C720   1.441       .  S
C659        H664   1.087       .  S
C659        C660   1.366       .  D
C660        C700   1.475       .  S
H663        C805   1.087       .  S
C665        C666   1.535       .  S
C665        C671   1.529       .  S
C665        C669   1.532       .  S
C665        C726   1.465       .  S
C666        H673   1.087       .  S
C666        C667   1.364       .  D
C667        C668   1.535       .  S
C667        C724   1.441       .  S
C668        C672   1.542       .  S
C668        C670   1.537       .  S
C668        H674   1.112       .  S
C669        H675   1.087       .  S
C669        C670   1.364       .  D
C670        C717   1.438       .  S
C671        H676   1.087   1_655  S
C671        C672   1.366       .  D
C672        C716   1.475       .  S
C677        C678   1.532       .  S
C677        C683   1.529       .  S
C677        C681   1.535       .  S
C677        C721   1.465       .  S
C678        H685   1.087       .  S
C678        C679   1.364       .  D
C679        C680   1.537       .  S
C679        C718   1.438       .  S
C680        C684   1.542       .  S
C680        C682   1.535       .  S
C680        H686   1.112       .  S
C681        H835   1.087       .  S
C681        C682   1.364       .  D
C682        C719   1.441       .  S
C683        H688   1.087       .  S
C683        C684   1.366       .  D
C684        C701   1.475       .  S
H687        C829   1.087       .  S
O689       Ni697   1.914       .  S
O689        C699   1.281       .  A
O690       Ni697   1.920       .  S
O690        C700   1.281       .  A
O691       Ni697   1.914       .  S
O691        C701   1.281       .  A
O692       Ni697   1.920       .  S
O692        C702   1.281       .  A
O693       Ni698   1.914       .  S
O693        C702   1.281       .  A
O694       Ni698   1.920       .  S
O694        C701   1.281       .  A
O695       Ni698   1.914       .  S
O695        C700   1.281       .  A
O696       Ni698   1.920       .  S
O696        C699   1.281       .  A
Ni697      Ni698   2.390       .  S
O703       Ni711   1.914   1_545  S
O704       Ni859   1.920       .  S
O704        C714   1.280       .  A
O705       Ni711   1.914       .  S
O706       Ni859   1.920   1_545  S
O706        C716   1.280       .  A
O707       Ni860   1.914   1_545  S
O708       Ni712   1.920       .  S
O708        C715   1.280       .  A
O709       Ni860   1.914       .  S
O710       Ni712   1.920   1_545  S
O710        C713   1.280       .  A
Ni711       O852   1.920   1_554  S
Ni711       O854   1.920   1_564  S
Ni712       O855   1.914   1_564  S
Ni712       O857   1.914   1_554  S
C717        C718   1.204       .  T
C721        C870   1.204       .  T
C722        C869   1.204       .  T
C723        C724   1.205       .  T
C727        C728   1.204       .  T
C729        C730   1.204       .  T
C733        C882   1.204       .  T
C734        C881   1.204       .  T
C735        C736   1.205       .  T
C739        C740   1.204       .  T
C741        C742   1.532       .  S
C741        C747   1.529       .  S
C741        C745   1.535       .  S
C741        C886   1.465       .  S
C742        H749   1.087       .  S
C742        C743   1.364       .  D
C743        C744   1.537       .  S
C743        C887   1.438       .  S
C744        C748   1.542       .  S
C744        C746   1.535       .  S
C744        H750   1.112       .  S
C745        H751   1.087       .  S
C745        C746   1.364       .  D
C746        C884   1.441       .  S
C747        H752   1.087       .  S
C747        C748   1.366       .  D
C748        C863   1.475       .  S
C753        C754   1.535       .  S
C753        C759   1.529       .  S
C753        C757   1.532       .  S
C753        C881   1.465       .  S
C754        C755   1.364       .  D
C755        C756   1.535       .  S
C755        C879   1.441       .  S
C756        C760   1.542       .  S
C756        C758   1.537       .  S
C756        H762   1.112       .  S
C757        H763   1.087       .  S
C757        C758   1.364       .  D
C758        C888   1.438       .  S
C759        H764   1.087       .  S
C759        C760   1.366       .  D
C760        C850   1.475       .  S
C765        C766   1.532       .  S
C765        C771   1.529       .  S
C765        C769   1.535       .  S
C765        C885   1.465       .  S
C766        H773   1.087       .  S
C766        C767   1.364       .  D
C767        C768   1.537       .  S
C767        C878   1.438       .  S
C768        C772   1.542       .  S
C768        C770   1.535       .  S
C768        H774   1.112       .  S
C769        H775   1.087       .  S
C769        C770   1.364       .  D
C770        C883   1.441       .  S
C771        H776   1.087   1_655  S
C771        C772   1.366       .  D
C772        C862   1.475       .  S
C777        C778   1.535   1_556  S
C777        C783   1.529       .  S
C777        C781   1.532       .  S
C777        C882   1.465   1_556  S
C778        C779   1.364   1_554  D
C779        C780   1.535       .  S
C779        C880   1.441   1_556  S
C780        C784   1.542       .  S
C780        C782   1.537       .  S
C780        H786   1.112       .  S
C781        H787   1.087       .  S
C781        C782   1.364       .  D
C782        C877   1.438       .  S
C783        H788   1.087       .  S
C783        C784   1.366       .  D
C784        C847   1.475       .  S
C789        C790   1.535       .  S
C789        C795   1.529       .  S
C789        C793   1.532       .  S
C789        C873   1.465       .  S
C790        H797   1.087       .  S
C790        C791   1.364       .  D
C791        C792   1.535       .  S
C791        C871   1.441       .  S
C792        C796   1.542       .  S
C792        C794   1.537       .  S
C792        H798   1.112       .  S
C793        H799   1.087       .  S
C793        C794   1.364       .  D
C794        C875   1.438       .  S
C795        H800   1.087       .  S
C795        C796   1.366       .  D
C796        C861   1.475       .  S
C801        C802   1.532       .  S
C801        C807   1.529       .  S
C801        C805   1.535       .  S
C801        C870   1.465       .  S
C802        H809   1.087       .  S
C802        C803   1.364       .  D
C803        C804   1.537       .  S
C803        C876   1.438       .  S
C804        C808   1.542       .  S
C804        C806   1.535       .  S
C804        H810   1.112       .  S
C805        C806   1.364       .  D
C806        C868   1.441       .  S
C807        H812   1.087       .  S
C807        C808   1.366       .  D
C808        C848   1.475       .  S
C813        C814   1.535       .  S
C813        C819   1.529       .  S
C813        C817   1.532       .  S
C813        C874   1.465       .  S
C814        H821   1.087       .  S
C814        C815   1.364       .  D
C815        C816   1.535       .  S
C815        C872   1.441       .  S
C816        C820   1.542       .  S
C816        C818   1.537       .  S
C816        H822   1.112       .  S
C817        H823   1.087       .  S
C817        C818   1.364       .  D
C818        C865   1.438       .  S
C819        H824   1.087   1_655  S
C819        C820   1.366       .  D
C820        C864   1.475       .  S
C825        C826   1.532       .  S
C825        C831   1.529       .  S
C825        C829   1.535   1_556  S
C825        C869   1.465   1_556  S
C826        H833   1.087       .  S
C826        C827   1.364       .  D
C827        C828   1.537       .  S
C827        C866   1.438       .  S
C828        C832   1.542       .  S
C828        C830   1.535       .  S
C828        H834   1.112       .  S
C829        C830   1.364   1_554  D
C830        C867   1.441   1_556  S
C831        H836   1.087       .  S
C831        C832   1.366       .  D
C832        C849   1.475       .  S
O837       Ni845   1.914       .  S
O837        C847   1.281       .  A
O838       Ni845   1.920       .  S
O838        C848   1.281       .  A
O839       Ni845   1.914       .  S
O839        C849   1.281       .  A
O840       Ni845   1.920       .  S
O840        C850   1.281       .  A
O841       Ni846   1.914       .  S
O841        C850   1.281       .  A
O842       Ni846   1.920       .  S
O842        C849   1.281       .  A
O843       Ni846   1.914       .  S
O843        C848   1.281       .  A
O844       Ni846   1.920       .  S
O844        C847   1.281       .  A
Ni845      Ni846   2.390       .  S
O851       Ni859   1.914   1_545  S
O852        C862   1.280       .  A
O853       Ni859   1.914       .  S
O854        C864   1.280       .  A
O856       Ni860   1.920       .  S
O856        C863   1.280       .  A
O858       Ni860   1.920   1_545  S
O858        C861   1.280       .  A
C865        C866   1.204       .  T
C871        C872   1.205       .  T
C875        C876   1.204       .  T
C877        C878   1.204       .  T
C883        C884   1.205       .  T
C887        C888   1.204       .  T
