geometry optimzed in LAMMPS
_audit_creation_date              2020-11-30 
_audit_creation_method            'lammps2cif' 
_symmetry_space_group_name_H-M    'P1' 
_symmetry_Int_Tables_number       1 
_symmetry_cell_setting            triclinic 
loop_ 
_symmetry_equiv_pos_as_xyz 
  x,y,z 
_cell_length_a                    39.67929663 
_cell_length_b                    35.09938899822507 
_cell_length_c                    30.27070710832233 
_cell_angle_alpha                 89.29347879249023 
_cell_angle_beta                  97.93434855341658 
_cell_angle_gamma                 91.63773704228511 
loop_ 
_atom_site_label 
_atom_site_type_symbol 
_atom_site_fract_x 
_atom_site_fract_y 
_atom_site_fract_z 
_atom_site_charge 
N1          N  0.46654525  0.70090425  0.41809258    -0.26100
N2          N  0.46317837  0.71490006  0.37693408    -0.34000
C3          C  0.45809882  0.75276952  0.37865376     0.02200
C4          C  0.45846466  0.76257622  0.42296049     0.08300
C5          C  0.46378012  0.72912817  0.44680684    -0.04800
H6          H  0.45430645  0.77157961  0.34993119     0.08900
H7          H  0.46535791  0.72545453  0.48257844     0.10100
Cu8        Cu  0.46580225  0.68076912  0.32106247     0.44200
Cu9        Cu  0.47465995  0.64427412  0.43547071     0.42000
Cu10       Cu  0.48923225  0.58197990  0.34994525     0.43900
N11         N  0.47027519  0.63804174  0.27439054    -0.33500
N12         N  0.47954474  0.60289180  0.28567906    -0.27700
C13         C  0.47847789  0.58180737  0.24878351    -0.03800
C14         C  0.46806990  0.60453071  0.21245695     0.08400
C15         C  0.46300773  0.64002772  0.22953575     0.02200
H16         H  0.48362395  0.55169869  0.24865543     0.09800
H17         H  0.45375098  0.66502773  0.21094741     0.08900
N18         N  0.48925548  0.56376465  0.41490085    -0.34900
N19         N  0.48321696  0.58679970  0.44680138    -0.27100
C20         C  0.48241174  0.56646962  0.48458824    -0.02400
C21         C  0.48816884  0.52856025  0.47601864     0.06300
C22         C  0.49245562  0.52811835  0.43130173     0.04300
H23         H  0.47747346  0.57852059  0.51567647     0.09500
H24         H  0.49645796  0.50365313  0.41151641     0.08300
N25         N  0.49407765  0.22507596  0.65527593    -0.26100
N26         N  0.49601124  0.21154019  0.69659794    -0.34000
C27         C  0.49814819  0.17317994  0.69538291     0.02200
C28         C  0.49736244  0.16252478  0.65129655     0.08300
C29         C  0.49485611  0.19600653  0.62702062    -0.04800
H30         H  0.50032211  0.15458804  0.72434634     0.08900
H31         H  0.49395992  0.19912132  0.59126464     0.10100
Cu32       Cu  0.49570483  0.24640965  0.75252447     0.44200
Cu33       Cu  0.49092242  0.28215671  0.63659719     0.42000
Cu34       Cu  0.48461754  0.34670806  0.72310937     0.43900
N35         N  0.49393225  0.28989667  0.79921723    -0.33500
N36         N  0.48940337  0.32605897  0.78753800    -0.27700
C37         C  0.49017621  0.34736656  0.82422248    -0.03800
C38         C  0.49540473  0.32368746  0.86089065     0.08400
C39         C  0.49774368  0.28741153  0.84417363     0.02200
H40         H  0.48782546  0.37801019  0.82410038     0.09800
H41         H  0.50241828  0.26133930  0.86320525     0.08900
N42         N  0.48498717  0.36429984  0.65808366    -0.34900
N43         N  0.48779222  0.34051540  0.62549562    -0.27100
C44         C  0.48868625  0.36063460  0.58750224    -0.02400
C45         C  0.48626705  0.39908150  0.59678883     0.06300
C46         C  0.48395597  0.40011519  0.64202093     0.04300
H47         H  0.49093003  0.34809257  0.55563254     0.09500
H48         H  0.48241426  0.42501355  0.66224793     0.08300
C49         C  0.25789407  0.57389725  0.07725635     0.87700
C50         C  0.24611582  0.58811541  0.02970177    -0.52600
C51         C  0.25014135  0.56250507  0.99760690     0.10600
C52         C  0.26521829  0.52459082  0.01603726     0.21600
C53         C  0.23799730  0.53657711  0.08194671    -0.53300
C54         C  0.24161189  0.51022979  0.05021707     0.10700
C55         C  0.29490851  0.56253190  0.07714581    -0.52800
C56         C  0.29900915  0.53699947  0.04449525     0.11300
H57         H  0.23670241  0.61655207  0.02201250     0.15800
H58         H  0.26865836  0.50426864  0.98936800     0.01500
H59         H  0.22231712  0.53140755  0.10825927     0.16100
H60         H  0.31608184  0.57618619  0.09822910     0.15900
C61         C  0.19246717  0.34154202  0.00037968     0.87700
C62         C  0.15580102  0.35351150  0.00143221    -0.52600
C63         C  0.15248829  0.37947448  0.03377973     0.10600
C64         C  0.18668342  0.39167379  0.06123398     0.21600
C65         C  0.21261262  0.37854800  0.99444311    -0.53300
C66         C  0.20976063  0.40535621  0.02605763     0.10700
C67         C  0.20489888  0.32770006  0.04792437    -0.52800
C68         C  0.20166752  0.35379057  0.07984567     0.11300
H69         H  0.13419046  0.33995641  0.98105533     0.15800
H70         H  0.18376066  0.41221307  0.08786897     0.01500
H71         H  0.22771902  0.38322885  0.96743356     0.16100
H72         H  0.21391341  0.29912849  0.05578126     0.15900
C73         C  0.43848189  0.56877571  0.00392750     0.87700
C74         C  0.45159546  0.58748300  0.04873607    -0.52600
C75         C  0.44665645  0.56557285  0.08467075     0.10600
C76         C  0.42926338  0.52667707  0.07271372     0.21600
C77         C  0.45637984  0.53056421  0.00495028    -0.53300
C78         C  0.45170537  0.50810820  0.04127467     0.10700
C79         C  0.40095392  0.55848391  0.00642046    -0.52800
C80         C  0.39590777  0.53669177  0.04290359     0.11300
H81         H  0.46293495  0.61606131  0.05178263     0.15800
H82         H  0.42526468  0.50903620  0.10238362     0.01500
H83         H  0.47115212  0.52253571  0.97914967     0.16100
H84         H  0.38025783  0.57026423  0.98356676     0.15900
C85         C  0.01285064  0.34847744  0.07224785     0.87700
C86         C  0.05051624  0.35822786  0.07019329    -0.52600
C87         C  0.05593969  0.38087439  0.03460374     0.10600
C88         C  0.02288576  0.39202240  0.00503808     0.21600
C89         C  0.49705958  0.39101508  0.07104861    -0.53300
C90         C  0.00080090  0.41022025  0.03708605     0.10700
C91         C  0.50298180  0.33585633  0.02477090    -0.52800
C92         C  0.00485716  0.35375754  0.99167524     0.11300
H93         H  0.07100828  0.34567092  0.09270677     0.15800
H94         H  0.02728209  0.41027362  0.97599970     0.01500
H95         H  0.48119230  0.39805836  0.09603166     0.16100
H96         H  0.49164208  0.30742527  0.01954692     0.15900
N97         N  0.21708192  0.22474233  0.42116148    -0.26100
N98         N  0.21577832  0.21158995  0.38010701    -0.34000
C99         C  0.21455173  0.17307779  0.38187171     0.02200
C100        C  0.21530941  0.16192151  0.42605590     0.08300
C101        C  0.21683367  0.19526639  0.44985142    -0.04800
H102        H  0.21244558  0.15470576  0.35312327     0.08900
H103        H  0.21674706  0.19798159  0.48540161     0.10100
Cu104      Cu  0.21444026  0.24724924  0.32370569     0.44200
Cu105      Cu  0.21692052  0.28180900  0.43811639     0.42000
Cu106      Cu  0.21585417  0.34878185  0.34903813     0.43900
N107        N  0.21380993  0.29082194  0.27543425    -0.33500
N108        N  0.21461866  0.32751373  0.28533734    -0.27700
C109        C  0.21374432  0.34836793  0.24765107    -0.03800
C110        C  0.21236339  0.32382580  0.21226447     0.08400
C111        C  0.21235854  0.28752646  0.23081024     0.02200
H112        H  0.21375955  0.37920110  0.24617672     0.09800
H113        H  0.21113237  0.26077285  0.21321811     0.08900
N114        N  0.21477959  0.36485479  0.41435846    -0.34900
N115        N  0.21505423  0.34008135  0.44751642    -0.27100
C116        C  0.21355393  0.35900766  0.48554161    -0.02400
C117        C  0.21225036  0.39782015  0.47589244     0.06300
C118        C  0.21312002  0.40023650  0.43023528     0.04300
H119        H  0.21323778  0.34528277  0.51763426     0.09500
H120        H  0.21260741  0.42570464  0.40974032     0.08300
N121        N  0.22330455  0.69604899  0.65739008    -0.26100
N122        N  0.22984715  0.70875744  0.69882153    -0.34000
C123        C  0.23560420  0.74688910  0.69730294     0.02200
C124        C  0.23228952  0.75827860  0.65293044     0.08300
C125        C  0.22459116  0.72543776  0.62877124    -0.04800
H126        H  0.24264754  0.76469619  0.72620865     0.08900
H127        H  0.22138192  0.72282189  0.59284087     0.10100
Cu128      Cu  0.23237926  0.67280690  0.75525996     0.44200
Cu129      Cu  0.21574288  0.63930543  0.63913941     0.42000
Cu130      Cu  0.22169018  0.57208311  0.72796422     0.43900
N131        N  0.23362155  0.62874374  0.80317754    -0.33500
N132        N  0.22974040  0.59228550  0.79238953    -0.27700
C133        C  0.23182527  0.57081314  0.82968584    -0.03800
C134        C  0.23720609  0.59468876  0.86583149     0.08400
C135        C  0.23827088  0.63126087  0.84810943     0.02200
H136        H  0.22959091  0.54001238  0.83032016     0.09800
H137        H  0.24216239  0.65765630  0.86644202     0.08900
N138        N  0.21449998  0.55616949  0.66188620    -0.34900
N139        N  0.21226614  0.58093947  0.62857717    -0.27100
C140        C  0.20926102  0.56183800  0.58988808    -0.02400
C141        C  0.20966648  0.52294089  0.59935451     0.06300
C142        C  0.21294053  0.52068433  0.64555161     0.04300
H143        H  0.20777373  0.57547296  0.55750561     0.09500
H144        H  0.21487057  0.49529352  0.66620706     0.08300
N145        N  0.21687823  0.72108723  0.15668290    -0.26100
N146        N  0.22911846  0.71020658  0.19762239    -0.34000
C147        C  0.24149069  0.67491077  0.19595422     0.02200
C148        C  0.23663459  0.66353335  0.15187788     0.08300
C149        C  0.22105770  0.69332708  0.12800466    -0.04800
H150        H  0.25359488  0.65913856  0.22445787     0.08900
H151        H  0.21396772  0.69513539  0.09223306     0.10100
Cu152      Cu  0.22939278  0.74539288  0.25270862     0.44200
Cu153      Cu  0.19756364  0.77404713  0.13984793     0.42000
Cu154      Cu  0.19995664  0.84249912  0.22613160     0.43900
N155        N  0.22676843  0.78766660  0.29987720    -0.33500
N156        N  0.21613048  0.82257134  0.28994971    -0.27700
C157        C  0.21771552  0.84270792  0.32769956    -0.03800
C158        C  0.22979014  0.81940411  0.36292081     0.08400
C159        C  0.23536758  0.78477234  0.34440002     0.02200
H160        H  0.21066829  0.87216623  0.32926563     0.09800
H161        H  0.24502293  0.75940500  0.36187024     0.08900
N162        N  0.18680803  0.85589174  0.15935145    -0.34900
N163        N  0.18586363  0.83037539  0.12752941    -0.27100
C164        C  0.17982560  0.84789958  0.08766014    -0.02400
C165        C  0.17681851  0.88653231  0.09460768     0.06300
C166        C  0.18123200  0.89045926  0.14061623     0.04300
H167        H  0.17907465  0.83359357  0.05609146     0.09500
H168        H  0.18237807  0.91669341  0.15920223     0.08300
N169        N  0.18735565  0.18472475  0.91663125    -0.26100
N170        N  0.19457690  0.19908566  0.87830766    -0.34000
C171        C  0.19802428  0.23730018  0.88187176     0.02200
C172        C  0.19271901  0.24698100  0.92443192     0.08300
C173        C  0.18601042  0.21318344  0.94549736    -0.04800
H174        H  0.20439406  0.25638469  0.85574531     0.08900
H175        H  0.18109203  0.20941435  0.97958031     0.10100
Cu176      Cu  0.20070789  0.16540397  0.82407258     0.44200
Cu177      Cu  0.18146145  0.12722715  0.92999710     0.42000
Cu178      Cu  0.19723184  0.06267641  0.84561008     0.43900
N179        N  0.20631703  0.12413859  0.77707516    -0.33500
N180        N  0.20537338  0.08703132  0.78538084    -0.27700
C181        C  0.20853901  0.06810780  0.74794445    -0.03800
C182        C  0.21171857  0.09449967  0.71467046     0.08400
C183        C  0.21007606  0.12973722  0.73391479     0.02200
H184        H  0.20740610  0.03739498  0.74489014     0.09800
H185        H  0.21051888  0.15729937  0.71756088     0.08900
N186        N  0.18621036  0.04483843  0.90741916    -0.34900
N187        N  0.18005138  0.06873822  0.93843958    -0.27100
C188        C  0.17435186  0.04886782  0.97499541    -0.02400
C189        C  0.17703810  0.01034782  0.96668987     0.06300
C190        C  0.18458421  0.00901663  0.92329371     0.04300
H191        H  0.16945533  0.06184329  0.00559856     0.09500
H192        H  0.18900739  0.98407548  0.90455183     0.08300
C193        C  0.25410764  0.84704830  0.57393249     0.87700
C194        C  0.29255936  0.85311221  0.57364935    -0.52600
C195        C  0.30056019  0.87445820  0.53818671     0.10600
C196        C  0.26928223  0.88812831  0.50701021     0.21600
C197        C  0.23975791  0.88732606  0.57265042    -0.53300
C198        C  0.24770507  0.90914574  0.53721104     0.10700
C199        C  0.24075392  0.82996321  0.52819112    -0.52800
C200        C  0.24884556  0.85148405  0.49331595     0.11300
H201        H  0.31152125  0.83948718  0.59752991     0.15800
H202        H  0.27582287  0.90531059  0.47813070     0.01500
H203        H  0.22480785  0.89706704  0.59748295     0.16100
H204        H  0.22690361  0.80280295  0.52382144     0.15900
C205        C  0.19878296  0.07069474  0.50365878     0.87700
C206        C  0.21183927  0.08738764  0.54969945    -0.52600
C207        C  0.20374177  0.06533910  0.58412737     0.10600
C208        C  0.18360420  0.02868961  0.56978584     0.21600
C209        C  0.21344602  0.03055678  0.50438943    -0.53300
C210        C  0.20544838  0.00827349  0.53943826     0.10700
C211        C  0.16033672  0.06422280  0.50365559    -0.52800
C212        C  0.15233279  0.04244581  0.53875584     0.11300
H213        H  0.22514429  0.11483380  0.55457502     0.15800
H214        H  0.17702718  0.01113070  0.59836256     0.01500
H215        H  0.22861963  0.02121792  0.47960365     0.16100
H216        H  0.14136251  0.07812547  0.48005232     0.15900
C217        C  0.44246785  0.84968154  0.50326555     0.87700
C218        C  0.40445554  0.85424462  0.50576192    -0.52600
C219        C  0.39805803  0.87469684  0.54176056     0.10600
C220        C  0.43043723  0.88901933  0.57138391     0.21600
C221        C  0.45756208  0.89052010  0.50366848    -0.53300
C222        C  0.45133678  0.91144136  0.53975531     0.10700
C223        C  0.45692603  0.83230791  0.54844975    -0.52800
C224        C  0.45050098  0.85288167  0.58395973     0.11300
H225        H  0.38455134  0.84044651  0.48270784     0.15800
H226        H  0.42520870  0.90542100  0.60076038     0.01500
H227        H  0.47176597  0.90125030  0.47780625     0.16100
H228        H  0.47017144  0.80552874  0.55204633     0.15900
C229        C  0.01113669  0.07135921  0.57340095     0.87700
C230        C  0.49548352  0.09082726  0.52706730    -0.52600
C231        C  0.00363569  0.06775990  0.49279389     0.10600
C232        C  0.02241015  0.03092103  0.50584309     0.21600
C233        C  0.49148683  0.03287194  0.57174533    -0.53300
C234        C  0.49724865  0.01138914  0.53588296     0.10700
C235        C  0.04903579  0.06515998  0.57148988    -0.52800
C236        C  0.05501111  0.04415628  0.53570110     0.11300
H237        H  0.48360708  0.11841273  0.52319314     0.15800
H238        H  0.02732187  0.01404109  0.47667155     0.01500
H239        H  0.47653933  0.02297571  0.59721819     0.16100
H240        H  0.06921769  0.07842537  0.59460024     0.15900
N241        N  0.49133973  0.19758253  0.15256013    -0.26100
N242        N  0.49439727  0.21114726  0.19359330    -0.34000
C243        C  0.49909209  0.24937070  0.19183862     0.02200
C244        C  0.49883365  0.26001078  0.14763032     0.08300
C245        C  0.49395422  0.22663096  0.12378718    -0.04800
H246        H  0.50258528  0.26786043  0.22051857     0.08900
H247        H  0.49263143  0.22358820  0.08804327     0.10100
Cu248      Cu  0.49194475  0.17651517  0.24967989     0.44200
Cu249      Cu  0.48410039  0.14029575  0.13601654     0.42000
Cu250      Cu  0.47531354  0.07513441  0.22465421     0.43900
N251        N  0.48720832  0.13420382  0.29766794    -0.33500
N252        N  0.48083326  0.09776381  0.28810153    -0.27700
C253        C  0.47998803  0.07782886  0.32612840    -0.03800
C254        C  0.48601837  0.10281433  0.36119143     0.08400
C255        C  0.49061442  0.13829574  0.34229231     0.02200
H256        H  0.47604885  0.04724625  0.32805938     0.09800
H257        H  0.49661895  0.16492731  0.35961545     0.08900
N258        N  0.47382778  0.05780011  0.15934485    -0.34900
N259        N  0.47724863  0.08187112  0.12634177    -0.27100
C260        C  0.47654135  0.06210413  0.08839682    -0.02400
C261        C  0.47255160  0.02349895  0.09793305     0.06300
C262        C  0.47087191  0.02208116  0.14345651     0.04300
H263        H  0.47948873  0.07502637  0.05650705     0.09500
H264        H  0.46813434  0.99703258  0.16391514     0.08300
N265        N  0.45986168  0.72207137  0.92079472    -0.26100
N266        N  0.45769541  0.70875586  0.87971248    -0.34000
C267        C  0.45328658  0.67048631  0.88105914     0.02200
C268        C  0.45279064  0.65959930  0.92503506     0.08300
C269        C  0.45697501  0.69282332  0.94917304    -0.04800
H270        H  0.45046051  0.65214957  0.85225335     0.08900
H271        H  0.45755006  0.69563592  0.98483942     0.10100
Cu272      Cu  0.46081503  0.74358771  0.82399113     0.44200
Cu273      Cu  0.46570131  0.77921261  0.93826545     0.42000
Cu274      Cu  0.47316109  0.84491542  0.85034289     0.43900
N275        N  0.46607062  0.78639137  0.77680049    -0.33500
N276        N  0.47092760  0.82290161  0.78696213    -0.27700
C277        C  0.47218889  0.84336604  0.74941494    -0.03800
C278        C  0.46799998  0.81867503  0.71401335     0.08400
C279        C  0.46406121  0.78278073  0.73222539     0.02200
H280        H  0.47477617  0.87412945  0.74795941     0.09800
H281        H  0.45908941  0.75623679  0.71440863     0.08900
N282        N  0.47257524  0.86205138  0.91529827    -0.34900
N283        N  0.46986448  0.83772412  0.94825363    -0.27100
C284        C  0.46938131  0.85731926  0.98609762    -0.02400
C285        C  0.47182203  0.89608886  0.97649070     0.06300
C286        C  0.47385092  0.89776206  0.93106512     0.04300
H287        H  0.46689293  0.84413666  0.01798490     0.09500
H288        H  0.47591231  0.92295537  0.91060844     0.08300
C289        C  0.47054407  0.99706233  0.02063253    -0.12200
C290        C  0.47176164  0.99083325  0.06678556     0.10000
C291        C  0.47265572  0.95304062  0.08287857    -0.12200
C292        C  0.96416650  0.91974230  0.05166125    -0.12200
C293        C  0.47165144  0.92865617  0.00758170     0.10000
C294        C  0.47050211  0.96643865  0.99146826    -0.12200
H295        H  0.46953319  0.02560312  0.00674343     0.14000
H296        H  0.95714999  0.94538142  0.11329383     0.14000
H297        H  0.95531604  0.89211001  0.06226386     0.14000
H298        H  0.46944727  0.97262596  0.95624178     0.14000
C299        C  0.48963474  0.09287986  0.40775860    -0.12100
C300        C  0.49394517  0.08270765  0.44625710    -0.13600
C301        C  0.45903336  0.83986600  0.62933807    -0.12100
C302        C  0.46410344  0.82927140  0.66764419    -0.13600
C303        C  0.46346506  0.95158098  0.54976137    -0.15200
C304        C  0.48429643  0.97159361  0.52586555    -0.30400
H305        H  0.45506310  0.96452606  0.57850794     0.13800
H306        H  0.49276184  0.95857093  0.49722218     0.14400
C307        C  0.08923500  0.04035590  0.52203809    -0.15200
C308        C  0.11765268  0.03908607  0.55169304    -0.30400
H309        H  0.09096106  0.03956156  0.48657722     0.13800
H310        H  0.11564963  0.03664861  0.58704450     0.14400
C311        C  0.33531031  0.87814958  0.52552975    -0.15200
C312        C  0.36369144  0.87747030  0.55534380    -0.30400
H313        H  0.33740913  0.88068681  0.49020974     0.13800
H314        H  0.36185609  0.87823212  0.59077880     0.14400
C315        C  0.21627051  0.96834766  0.54965184    -0.15200
C316        C  0.23700508  0.94910644  0.52670281    -0.30400
H317        H  0.20655018  0.95469762  0.57777444     0.13800
H318        H  0.24668748  0.96271900  0.49851930     0.14400
C319        C  0.21204563  0.08633344  0.66842594    -0.12100
C320        C  0.20988225  0.07742527  0.62983529    -0.13600
C321        C  0.23575673  0.82965947  0.40919924    -0.12100
C322        C  0.24111403  0.83938675  0.44763914    -0.13600
C323        C  0.16492497  0.98400002  0.04059149    -0.12200
C324        C  0.17457326  0.97801574  0.99827448     0.10000
C325        C  0.18288838  0.94102117  0.98704915    -0.12200
C326        C  0.18266163  0.91110074  0.01785387    -0.12200
C327        C  0.17422370  0.91745388  0.06068311     0.10000
C328        C  0.16482926  0.95409433  0.07144588    -0.12200
H329        H  0.15778855  0.01185072  0.05033829     0.14000
H330        H  0.19039890  0.93511550  0.95489102     0.14000
H331        H  0.19019232  0.88330382  0.00841373     0.14000
H332        H  0.15763465  0.95982883  0.10387800     0.14000
C333        C  0.24570956  0.82180426  0.61045955    -0.12100
C334        C  0.23935230  0.79513872  0.63397394    -0.13600
C335        C  0.20700206  0.46751989  0.49168018    -0.12200
C336        C  0.21053645  0.42974557  0.50736444     0.10000
C337        C  0.21274011  0.42288869  0.55350225    -0.12200
C338        C  0.21197881  0.45297355  0.58315401    -0.12200
C339        C  0.20903808  0.49082650  0.56755035     0.10000
C340        C  0.20625268  0.49762709  0.52134833    -0.12200
H341        H  0.20490799  0.47411539  0.45645242     0.14000
H342        H  0.21544392  0.39433578  0.56706769     0.14000
H343        H  0.21407546  0.44630751  0.61834506     0.14000
H344        H  0.20370875  0.52621527  0.50783574     0.14000
C345        C  0.21154236  0.12420791  0.44463101    -0.12100
C346        C  0.20680402  0.09666382  0.46764357    -0.13600
C347        C  0.50376987  0.29743918  0.12896127    -0.12100
C348        C  0.50830966  0.32534742  0.10647463    -0.13600
C349        C  0.44783446  0.62212205  0.94339729    -0.12100
C350        C  0.44361323  0.59466829  0.96667866    -0.13600
C351        C  0.46638839  0.46956525  0.05102246    -0.15200
C352        C  0.48882922  0.45357139  0.02742483    -0.30400
H353        H  0.45817523  0.45423972  0.07908559     0.13800
H354        H  0.99434252  0.46372023  0.99920173     0.14400
C355        C  0.19475663  0.28399674  0.94449057    -0.12100
C356        C  0.19495084  0.31209830  0.96704727    -0.13600
C357        C  0.21006800  0.33444905  0.16572146    -0.12100
C358        C  0.20717165  0.34404686  0.12688038    -0.13600
C359        C  0.11906503  0.38698347  0.04829100    -0.15200
C360        C  0.08988617  0.38615628  0.01974555    -0.32800
H361        H  0.11829714  0.38985140  0.08382024     0.13800
H362        H  0.09081532  0.38623870  0.98405100     0.14400
C363        C  0.24679580  0.62901867  0.13294681    -0.12100
C364        C  0.25318346  0.60254838  0.11071618    -0.13600
C365        C  0.24109255  0.58312792  0.91215242    -0.12100
C366        C  0.24465717  0.57271187  0.95072125    -0.13600
C367        C  0.36204297  0.53176967  0.05836517    -0.15200
C368        C  0.33269162  0.53018904  0.03013247    -0.30400
H369        H  0.36133747  0.53230351  0.09408770     0.13800
H370        H  0.33338157  0.52669700  0.99467348     0.14400
C371        C  0.22792737  0.44316321  0.02448147    -0.15200
C372        C  0.22344360  0.47240990  0.05103895    -0.30400
H373        H  0.24546415  0.44673015  0.00014617     0.13800
H374        H  0.20578796  0.46883728  0.07519293     0.14400
C375        C  0.50349561  0.34678994  0.94472232    -0.12100
C376        C  0.49952481  0.33549261  0.90677727    -0.13600
C377        C  0.50001615  0.12514564  0.63277363    -0.12100
C378        C  0.50304840  0.09806256  0.60936120    -0.13600
C379        C  0.45467334  0.57956106  0.12963927    -0.12100
C380        C  0.46087462  0.59195966  0.16697950    -0.13600
C381        C  0.47728660  0.49935379  0.54908221    -0.12200
C382        C  0.48799995  0.49544149  0.50705678     0.10000
C383        C  0.49815307  0.45942588  0.49481501    -0.12200
C384        C  0.49748585  0.42814277  0.52377246    -0.12200
C385        C  0.48675137  0.43210751  0.56575272     0.10000
C386        C  0.47667720  0.46811402  0.57803324    -0.12200
H387        H  0.46898172  0.52642195  0.55968100     0.14000
H388        H  0.50686190  0.45524329  0.46295210     0.14000
H389        H  0.50576083  0.40098322  0.51333111     0.14000
H390        H  0.46790006  0.47226327  0.60985683     0.14000
C391        C  0.44888175  0.82532537  0.46606815    -0.12100
C392        C  0.45338876  0.79910250  0.44213237    -0.13600
N393        N  0.96935797  0.69939894  0.42253312    -0.26100
N394        N  0.96358626  0.71241418  0.38096870    -0.34000
C395        C  0.95783187  0.75015694  0.38202679     0.02200
C396        C  0.96028897  0.76098489  0.42624864     0.08300
C397        C  0.96753126  0.72822349  0.45081582    -0.04800
H398        H  0.95182310  0.76813566  0.35287196     0.08900
H399        H  0.97059786  0.72532293  0.48676696     0.10100
Cu400      Cu  0.96324241  0.67755304  0.32495739     0.44200
Cu401      Cu  0.97804096  0.64304116  0.44126274     0.42000
Cu402      Cu  0.98469621  0.57929431  0.35374908     0.43900
N403        N  0.96603326  0.63464786  0.27790668    -0.33500
N404        N  0.97462140  0.59934603  0.28935103    -0.27700
C405        C  0.97368953  0.57814601  0.25258305    -0.03800
C406        C  0.96407743  0.60098775  0.21610037     0.08400
C407        C  0.95932390  0.63666502  0.23299392     0.02200
H408        H  0.97893023  0.54805594  0.25259519     0.09800
H409        H  0.95114949  0.66196672  0.21417927     0.08900
N410        N  0.98734900  0.56164343  0.41906486    -0.34900
N411        N  0.98473631  0.58509028  0.45205095    -0.27100
C412        C  0.98568865  0.56476921  0.49017690    -0.02400
C413        C  0.98888744  0.52655508  0.48046495     0.06300
C414        C  0.98988963  0.52583734  0.43494010     0.04300
H415        H  0.98324973  0.57686992  0.52222162     0.09500
H416        H  0.99198277  0.50118985  0.41452155     0.08300
N417        N  0.99368448  0.22254169  0.65665056    -0.26100
N418        N  0.99420563  0.20856219  0.69759960    -0.34000
C419        C  0.99666409  0.17027521  0.69610100     0.02200
C420        C  0.99760115  0.16015471  0.65220656     0.08300
C421        C  0.99572038  0.19383179  0.62831711    -0.04800
H422        H  0.99796584  0.15139275  0.72477186     0.08900
H423        H  0.99620594  0.19733893  0.59283520     0.10100
Cu424      Cu  0.99187742  0.24274721  0.75342275     0.44200
Cu425      Cu  0.99127803  0.27976327  0.63885809     0.42000
Cu426      Cu  0.98527806  0.34388743  0.72604180     0.43900
N427        N  0.98865263  0.28549020  0.80037975    -0.33500
N428        N  0.98568746  0.32198086  0.78939502    -0.27700
C429        C  0.98542124  0.34270012  0.82630277    -0.03800
C430        C  0.98836056  0.31828151  0.86236649     0.08400
C431        C  0.99045173  0.28218506  0.84510695     0.02200
H432        H  0.98442722  0.37346944  0.82686003     0.09800
H433        H  0.99403656  0.25573401  0.86368158     0.08900
N434        N  0.98819208  0.36197898  0.66182100    -0.34900
N435        N  0.99019006  0.33828135  0.62888270    -0.27100
C436        C  0.99160414  0.35857455  0.59115451    -0.02400
C437        C  0.99056812  0.39704764  0.60105202     0.06300
C438        C  0.98843576  0.39794478  0.64630808     0.04300
H439        H  0.99350676  0.34614556  0.55912562     0.09500
H440        H  0.98668700  0.42276644  0.66659666     0.08300
C441        C  0.75975040  0.57552159  0.07882395     0.87700
C442        C  0.74719974  0.58963097  0.03146404    -0.52600
C443        C  0.75085164  0.56403245  0.99922363     0.10600
C444        C  0.76638690  0.52625465  0.01729310     0.21600
C445        C  0.74016679  0.53807064  0.08406543    -0.53300
C446        C  0.74348599  0.51176814  0.05217807     0.10700
C447        C  0.79671732  0.56439417  0.07776141    -0.52800
C448        C  0.80039654  0.53881364  0.04499306     0.11300
H449        H  0.73743062  0.61795331  0.02397841     0.15800
H450        H  0.76946693  0.50595436  0.99044876     0.01500
H451        H  0.72492955  0.53277528  0.11082479     0.16100
H452        H  0.81811011  0.57798297  0.09851004     0.15900
C453        C  0.69517642  0.34302196  0.00335896     0.87700
C454        C  0.65865957  0.35540404  0.00485763    -0.52600
C455        C  0.65575927  0.38125062  0.03749396     0.10600
C456        C  0.69016469  0.39285875  0.06483306     0.21600
C457        C  0.71563644  0.37984831  0.99765210    -0.53300
C458        C  0.71311688  0.40648833  0.02955102     0.10700
C459        C  0.70771835  0.32876103  0.05070447    -0.52800
C460        C  0.70497140  0.35474023  0.08293546     0.11300
H461        H  0.63683388  0.34239783  0.98433277     0.15800
H462        H  0.68765845  0.41329243  0.09173911     0.01500
H463        H  0.73062678  0.38457512  0.97054201     0.16100
H464        H  0.71671371  0.30012587  0.05819228     0.15900
C465        C  0.94104002  0.56654559  0.00700811     0.87700
C466        C  0.95368311  0.58472366  0.05229854    -0.52600
C467        C  0.94764198  0.56268074  0.08770977     0.10600
C468        C  0.92984000  0.52419520  0.07477542     0.21600
C469        C  0.95827103  0.52799287  0.00812139    -0.53300
C470        C  0.95250398  0.50535347  0.04384574     0.10700
C471        C  0.90320415  0.55703570  0.00823408    -0.52800
C472        C  0.89714104  0.53516018  0.04423815     0.11300
H473        H  0.96524896  0.61316399  0.05600238     0.15800
H474        H  0.92497738  0.50641561  0.10398775     0.01500
H475        H  0.97351053  0.51999382  0.98283230     0.16100
H476        H  0.88307491  0.56951197  0.98505449     0.15900
C477        C  0.51473612  0.35268461  0.07105041     0.87700
C478        C  0.55261222  0.36288585  0.07127201    -0.52600
C479        C  0.55910446  0.38604534  0.03653316     0.10600
C480        C  0.52671797  0.39740728  0.00559428     0.21600
C481        C  0.99557956  0.38702702  0.07260143    -0.53300
C482        C  0.50322777  0.41482987  0.03647298     0.10700
C483        C  0.99948968  0.33105650  0.02678514    -0.52800
C484        C  0.50939013  0.35914770  0.99056361     0.11300
H485        H  0.57254353  0.34992573  0.09432750     0.15800
H486        H  0.53193495  0.41617951  0.97734828     0.01500
H487        H  0.98076435  0.39471366  0.09850699     0.16100
H488        H  0.98783007  0.30268611  0.02269803     0.15900
N489        N  0.71531901  0.22573603  0.42315160    -0.26100
N490        N  0.71661870  0.21257527  0.38261499    -0.34000
C491        C  0.71545220  0.17402693  0.38442379     0.02200
C492        C  0.71344214  0.16283536  0.42812272     0.08300
C493        C  0.71337005  0.19625866  0.45153939    -0.04800
H494        H  0.71536124  0.15563374  0.35598693     0.08900
H495        H  0.71121842  0.19901674  0.48659654     0.10100
Cu496      Cu  0.71841258  0.24868095  0.32688763     0.44200
Cu497      Cu  0.71419042  0.28297410  0.43933926     0.42000
Cu498      Cu  0.71535851  0.35065790  0.35102822     0.43900
N499        N  0.71875959  0.29248392  0.27878723    -0.33500
N500        N  0.71778648  0.32916264  0.28822320    -0.27700
C501        C  0.71724214  0.34990473  0.25048781    -0.03800
C502        C  0.71793879  0.32532855  0.21553766     0.08400
C503        C  0.71882344  0.28912921  0.23440534     0.02200
H504        H  0.71562634  0.38062195  0.24858908     0.09800
H505        H  0.71876070  0.26233536  0.21707457     0.08900
N506        N  0.71179300  0.36624421  0.41587112    -0.34900
N507        N  0.71144892  0.34124000  0.44871225    -0.27100
C508        C  0.70888341  0.35989005  0.48661476    -0.02400
C509        C  0.70749591  0.39873782  0.47723205     0.06300
C510        C  0.70943641  0.40149327  0.43183771     0.04300
H511        H  0.70800038  0.34595969  0.51848212     0.09500
H512        H  0.70940774  0.42711350  0.41166924     0.08300
N513        N  0.72437332  0.69617590  0.65903607    -0.26100
N514        N  0.72966619  0.70917263  0.70039084    -0.34000
C515        C  0.73622832  0.74717447  0.69881978     0.02200
C516        C  0.73485626  0.75820055  0.65444737     0.08300
C517        C  0.72736969  0.72523362  0.63037965    -0.04800
H518        H  0.74226627  0.76517804  0.72774665     0.08900
H519        H  0.72507163  0.72235574  0.59452888     0.10100
Cu520      Cu  0.72940706  0.67337465  0.75665680     0.44200
Cu521      Cu  0.71520973  0.63937924  0.64151487     0.42000
Cu522      Cu  0.71450648  0.57219341  0.72989318     0.43900
N523        N  0.72975689  0.62932211  0.80452677    -0.33500
N524        N  0.72440618  0.59291398  0.79404097    -0.27700
C525        C  0.72703758  0.57162106  0.83150615    -0.03800
C526        C  0.73428271  0.59555930  0.86740827     0.08400
C527        C  0.73589037  0.63196209  0.84940264     0.02200
H528        H  0.72410902  0.54088313  0.83240822     0.09800
H529        H  0.74135931  0.65831551  0.86749512     0.08900
N530        N  0.70808634  0.55634965  0.66377149    -0.34900
N531        N  0.70853216  0.58114799  0.63075538    -0.27100
C532        C  0.70592178  0.56211965  0.59206533    -0.02400
C533        C  0.70380156  0.52325085  0.60116424     0.06300
C534        C  0.70515750  0.52089874  0.64718979     0.04300
H535        H  0.70670732  0.57571932  0.55997335     0.09500
H536        H  0.70495503  0.49541601  0.66756058     0.08300
N537        N  0.71896784  0.72275478  0.15805928    -0.26100
N538        N  0.73135266  0.71195237  0.19898704    -0.34000
C539        C  0.74381542  0.67670807  0.19736360     0.02200
C540        C  0.73886487  0.66524245  0.15334783     0.08300
C541        C  0.72313072  0.69493492  0.12943553    -0.04800
H542        H  0.75599001  0.66100649  0.22587671     0.08900
H543        H  0.71589975  0.69661864  0.09368095     0.10100
Cu544      Cu  0.73145980  0.74679222  0.25427200     0.44200
Cu545      Cu  0.69942628  0.77568213  0.14113837     0.42000
Cu546      Cu  0.69952461  0.84263922  0.22862275     0.43900
N547        N  0.72763271  0.78822542  0.30195348    -0.33500
N548        N  0.71576832  0.82266676  0.29233054    -0.27700
C549        C  0.71697514  0.84256168  0.33018638    -0.03800
C550        C  0.73014308  0.81959443  0.36516482     0.08400
C551        C  0.73671679  0.78538880  0.34639914     0.02200
H552        H  0.70921805  0.87174992  0.33194533     0.09800
H553        H  0.74756753  0.76045649  0.36360571     0.08900
N554        N  0.68795698  0.85710098  0.16196442    -0.34900
N555        N  0.68769943  0.83218055  0.12965621    -0.27100
C556        C  0.68259166  0.85046093  0.09017366    -0.02400
C557        C  0.67960635  0.88904286  0.09785078     0.06300
C558        C  0.68300313  0.89202239  0.14397540     0.04300
H559        H  0.68267993  0.83664333  0.05847312     0.09500
H560        H  0.68372453  0.91776224  0.16335284     0.08300
N561        N  0.68904870  0.18713851  0.91748450    -0.26100
N562        N  0.69449430  0.20178013  0.87852107    -0.34000
C563        C  0.69809823  0.23999007  0.88238544     0.02200
C564        C  0.69479532  0.24928081  0.92582600     0.08300
C565        C  0.68908676  0.21530614  0.94704061    -0.04800
H566        H  0.70310339  0.25934420  0.85581675     0.08900
H567        H  0.68560678  0.21121848  0.98163346     0.10100
Cu568      Cu  0.69822987  0.16812231  0.82325649     0.44200
Cu569      Cu  0.68346892  0.12972511  0.93094721     0.42000
Cu570      Cu  0.70079942  0.06526863  0.84857001     0.43900
N571        N  0.70377565  0.12597783  0.77706847    -0.33500
N572        N  0.70541247  0.08913926  0.78689556    -0.27700
C573        C  0.70833305  0.06959163  0.74981821    -0.03800
C574        C  0.70860682  0.09523915  0.71514311     0.08400
C575        C  0.70554502  0.13071232  0.73320676     0.02200
H576        H  0.70909785  0.03885651  0.74806754     0.09800
H577        H  0.70388929  0.15779488  0.71568960     0.08900
N578        N  0.69052211  0.04744905  0.91071887    -0.34900
N579        N  0.68343204  0.07151396  0.94101849    -0.27100
C580        C  0.67783091  0.05200685  0.97784700    -0.02400
C581        C  0.68157181  0.01350083  0.97050136     0.06300
C582        C  0.68963329  0.01182020  0.92734981     0.04300
H583        H  0.67184307  0.06522415  0.00778520     0.09500
H584        H  0.69495133  0.98678681  0.90933455     0.08300
C585        C  0.75607509  0.84794594  0.57584753     0.87700
C586        C  0.79437406  0.85515906  0.57520490    -0.52600
C587        C  0.80173600  0.87675122  0.53956776     0.10600
C588        C  0.77000146  0.88955920  0.50863294     0.21600
C589        C  0.74076292  0.88783353  0.57455518    -0.53300
C590        C  0.74805532  0.90991885  0.53895486     0.10700
C591        C  0.74295700  0.83058526  0.53020609    -0.52800
C592        C  0.75035951  0.85236253  0.49520190     0.11300
H593        H  0.81373627  0.84191525  0.59885022     0.15800
H594        H  0.77600692  0.90692433  0.47961990     0.01500
H595        H  0.72576005  0.89721853  0.59951084     0.16100
H596        H  0.72972494  0.80304715  0.52597585     0.15900
C597        C  0.69616754  0.07048410  0.50449317     0.87700
C598        C  0.70867422  0.08685185  0.55083666    -0.52600
C599        C  0.70038765  0.06447125  0.58488090     0.10600
C600        C  0.68060839  0.02772832  0.56991005     0.21600
C601        C  0.71112966  0.03043860  0.50511937    -0.53300
C602        C  0.70297951  0.00775573  0.53981350     0.10700
C603        C  0.65769800  0.06362445  0.50385286    -0.52800
C604        C  0.64946695  0.04149185  0.53857159     0.11300
H605        H  0.72175249  0.11439150  0.55619017     0.15800
H606        H  0.67387136  0.00989573  0.59817927     0.01500
H607        H  0.72663589  0.02144409  0.48053701     0.16100
H608        H  0.63884226  0.07768864  0.48024412     0.15900
C609        C  0.94305348  0.84890233  0.50472095     0.87700
C610        C  0.90516327  0.85573495  0.50608376    -0.52600
C611        C  0.89912956  0.87651363  0.54206941     0.10600
C612        C  0.93170021  0.88892572  0.57260305     0.21600
C613        C  0.96008643  0.88882733  0.50595385    -0.53300
C614        C  0.95411764  0.91013605  0.54182727     0.10700
C615        C  0.95585393  0.83065968  0.55000758    -0.52800
C616        C  0.94978428  0.85156223  0.58538239     0.11300
H617        H  0.88501905  0.84290535  0.48255584     0.15800
H618        H  0.92676620  0.90562939  0.60189586     0.01500
H619        H  0.97531651  0.89870113  0.48078656     0.16100
H620        H  0.96772731  0.80305228  0.55374890     0.15900
C621        C  0.50856477  0.07284811  0.57247188     0.87700
C622        C  0.99761954  0.08897699  0.52797829    -0.52600
C623        C  0.50132013  0.06961721  0.49177418     0.10600
C624        C  0.51947011  0.03236987  0.50474052     0.21600
C625        C  0.99468774  0.03114865  0.57303153    -0.53300
C626        C  0.00058982  0.00966359  0.53726835     0.10700
C627        C  0.54637939  0.06588950  0.57073016    -0.52800
C628        C  0.55215613  0.04484639  0.53488727     0.11300
H629        H  0.98525876  0.11628685  0.52400073     0.15800
H630        H  0.52425900  0.01547729  0.47551940     0.01500
H631        H  0.97980344  0.02123557  0.59856836     0.16100
H632        H  0.56670602  0.07867631  0.59403768     0.15900
N633        N  0.99487929  0.19325675  0.15348204    -0.26100
N634        N  0.99699111  0.20658842  0.19452076    -0.34000
C635        C  0.00070117  0.24487883  0.19315518     0.02200
C636        C  0.00080157  0.25582373  0.14919523     0.08300
C637        C  0.99716110  0.22258084  0.12501118    -0.04800
H638        H  0.00304121  0.26323564  0.22193975     0.08900
H639        H  0.99617858  0.21985596  0.08928234     0.10100
Cu640      Cu  0.99408362  0.17191439  0.25010544     0.44200
Cu641      Cu  0.98865333  0.13605208  0.13682075     0.42000
Cu642      Cu  0.98118456  0.07052467  0.22630855     0.43900
N643        N  0.98928538  0.13017269  0.29832313    -0.33500
N644        N  0.98445153  0.09346599  0.28927306    -0.27700
C645        C  0.98337496  0.07386079  0.32745381    -0.03800
C646        C  0.98761680  0.09941684  0.36201686     0.08400
C647        C  0.99142045  0.13484553  0.34271647     0.02200
H648        H  0.98062984  0.04316482  0.32987512     0.09800
H649        H  0.99621768  0.16183473  0.35964129     0.08900
N650        N  0.97963881  0.05351252  0.16102285    -0.34900
N651        N  0.98252267  0.07762723  0.12787465    -0.27100
C652        C  0.98139897  0.05792046  0.08987281    -0.02400
C653        C  0.97762157  0.01938640  0.09956697     0.06300
C654        C  0.97655158  0.01781694  0.14514707     0.04300
H655        H  0.98325485  0.07087380  0.05767347     0.09500
H656        H  0.97441950  0.99265321  0.16563544     0.08300
N657        N  0.96473423  0.71898680  0.92315459    -0.26100
N658        N  0.96289939  0.70544088  0.88222290    -0.34000
C659        C  0.95869041  0.66715462  0.88394841     0.02200
C660        C  0.95798560  0.65658403  0.92800782     0.08300
C661        C  0.96182868  0.68996359  0.95178894    -0.04800
H662        H  0.95580025  0.64863047  0.85529879     0.08900
H663        H  0.96182387  0.69308003  0.98730691     0.10100
Cu664      Cu  0.96496361  0.74027612  0.82611969     0.44200
Cu665      Cu  0.96918333  0.77610137  0.94006350     0.42000
Cu666      Cu  0.97094340  0.84209218  0.85120512     0.43900
N667        N  0.96651791  0.78343485  0.77820897    -0.33500
N668        N  0.96885597  0.82014981  0.78804407    -0.27700
C669        C  0.96819203  0.84080779  0.75034294    -0.03800
C670        C  0.96533806  0.81606346  0.71510702     0.08400
C671        C  0.96424217  0.77988418  0.73358139     0.02200
H672        H  0.96888279  0.87163907  0.74873916     0.09800
H673        H  0.96125323  0.75310503  0.71596087     0.08900
N674        N  0.97177362  0.85892877  0.91630033    -0.34900
N675        N  0.97107244  0.83448357  0.94962102    -0.27100
C676        C  0.97157798  0.85392266  0.98773391    -0.02400
C677        C  0.97278116  0.89262155  0.97782884     0.06300
C678        C  0.97284312  0.89458285  0.93208272     0.04300
H679        H  0.97143465  0.84074485  0.02019399     0.09500
H680        H  0.97324391  0.91994751  0.91150567     0.08300
C681        C  0.98588696  0.99204024  0.02577571    -0.12200
C682        C  0.97611779  0.98690779  0.06837264     0.10000
C683        C  0.96521036  0.95037793  0.08096183    -0.12200
C684        C  0.47262185  0.92240328  0.05370573    -0.12200
C685        C  0.97392161  0.92495477  0.00907319     0.10000
C686        C  0.98478515  0.96145750  0.99649425    -0.12200
H687        H  0.99484870  0.01957893  0.01506835     0.14000
H688        H  0.47375451  0.94688592  0.11812209     0.14000
H689        H  0.47364650  0.89386559  0.06758679     0.14000
H690        H  0.99293072  0.96644077  0.96419330     0.14000
C691        C  0.99110724  0.09009174  0.40865225    -0.12100
C692        C  0.99570832  0.08041179  0.44725931    -0.13600
C693        C  0.95688573  0.83784800  0.63065386    -0.12100
C694        C  0.96135151  0.82670350  0.66876855    -0.13600
C695        C  0.96739965  0.94979306  0.55212537    -0.15200
C696        C  0.98749347  0.96991410  0.52729184    -0.30400
H697        H  0.95999599  0.96251456  0.58162656     0.13800
H698        H  0.99485709  0.95721620  0.49776022     0.14400
C699        C  0.58637062  0.04033654  0.52144542    -0.15200
C700        C  0.61466824  0.03827904  0.55123114    -0.30400
H701        H  0.58821559  0.03981225  0.48600290     0.13800
H702        H  0.61248725  0.03559552  0.58651427     0.14400
C703        C  0.83628750  0.88081095  0.52622872    -0.15200
C704        C  0.86486277  0.88032234  0.55569400    -0.30400
H705        H  0.83806176  0.88291940  0.49079705     0.13800
H706        H  0.86322974  0.88144357  0.59116834     0.14400
C707        C  0.71428580  0.96788854  0.55002675    -0.15200
C708        C  0.73654924  0.94966504  0.52841674    -0.30400
H709        H  0.70378412  0.95345420  0.57709687     0.13800
H710        H  0.74696321  0.96403010  0.50122478     0.14400
C711        C  0.70825999  0.08597499  0.66905384    -0.12100
C712        C  0.70603315  0.07646781  0.63065038    -0.13600
C713        C  0.73674928  0.83006954  0.41132458    -0.12100
C714        C  0.74250663  0.84008686  0.44962423    -0.13600
C715        C  0.67473922  0.98841300  0.04695227    -0.12200
C716        C  0.67904371  0.98144498  0.00245819     0.10000
C717        C  0.68165026  0.94355849  0.98911879    -0.12200
C718        C  0.68097426  0.91355096  0.01974330    -0.12200
C719        C  0.67772098  0.92061835  0.06455929     0.10000
C720        C  0.67405994  0.95840242  0.07757438    -0.12200
H721        H  0.67245032  0.01707629  0.05863153     0.14000
H722        H  0.68458708  0.93686566  0.95511956     0.14000
H723        H  0.68370571  0.88492840  0.00818613     0.14000
H724        H  0.67106097  0.96507759  0.11156473     0.14000
C725        C  0.74835216  0.82214813  0.61236847    -0.12100
C726        C  0.74219123  0.79512656  0.63558182    -0.13600
C727        C  0.70102693  0.46817353  0.49326664    -0.12200
C728        C  0.70514828  0.43042834  0.50881794     0.10000
C729        C  0.70749543  0.42340403  0.55494886    -0.12200
C730        C  0.70646822  0.45334790  0.58474365    -0.12200
C731        C  0.70310369  0.49119531  0.56927360     0.10000
C732        C  0.70000862  0.49812490  0.52307373    -0.12200
H733        H  0.69869809  0.47485342  0.45805082     0.14000
H734        H  0.71066779  0.39486292  0.56839477     0.14000
H735        H  0.70891991  0.44663999  0.61996228     0.14000
H736        H  0.69696801  0.52671079  0.50967988     0.14000
C737        C  0.70934410  0.12495917  0.44646823    -0.12100
C738        C  0.70439178  0.09707751  0.46898764    -0.13600
C739        C  0.00427122  0.29357051  0.13102051    -0.12100
C740        C  0.00762305  0.32168684  0.10851324    -0.13600
C741        C  0.95232974  0.61940826  0.94668305    -0.12100
C742        C  0.94729890  0.59234561  0.97015784    -0.13600
C743        C  0.96636214  0.46643386  0.05342716    -0.15200
C744        C  0.98698227  0.44916301  0.02825449    -0.30400
H745        H  0.95898936  0.45185847  0.08249321     0.13800
H746        H  0.49725853  0.46908112  0.99963133     0.14400
C747        C  0.69702545  0.28611835  0.94636904    -0.12100
C748        C  0.69731909  0.31386657  0.96954423    -0.13600
C749        C  0.71523159  0.33567948  0.16887582    -0.12100
C750        C  0.71152168  0.34505772  0.12994080    -0.13600
C751        C  0.62241729  0.38975543  0.05172955    -0.15200
C752        C  0.59350564  0.39054908  0.02270123    -0.32800
H753        H  0.62138512  0.39206632  0.08725743     0.13800
H754        H  0.59491901  0.39116072  0.98711859     0.14400
C755        C  0.74903500  0.63069149  0.13455153    -0.12100
C756        C  0.75536276  0.60415633  0.11240299    -0.13600
C757        C  0.73959442  0.58419078  0.91375582    -0.12100
C758        C  0.74424252  0.57399936  0.95236659    -0.13600
C759        C  0.86302629  0.53137647  0.05908018    -0.15200
C760        C  0.83386485  0.53128315  0.03054296    -0.30400
H761        H  0.86204809  0.53146334  0.09476265     0.13800
H762        H  0.83460693  0.52821513  0.99503941     0.14400
C763        C  0.73136979  0.44417806  0.02814680    -0.15200
C764        C  0.72552052  0.47392535  0.05318323    -0.30400
H765        H  0.74992338  0.44731536  0.00509616     0.13800
H766        H  0.70688411  0.47076597  0.07609598     0.14400
C767        C  0.99731206  0.34084765  0.94623514    -0.12100
C768        C  0.99249172  0.32949520  0.90837085    -0.13600
C769        C  0.00130577  0.12309105  0.63363145    -0.12100
C770        C  0.00516895  0.09633240  0.61019788    -0.13600
C771        C  0.95407799  0.57655152  0.13287492    -0.12100
C772        C  0.95865366  0.58873975  0.17040633    -0.13600
C773        C  0.99710522  0.49848776  0.55766533    -0.12200
C774        C  0.98975679  0.49341493  0.51137257     0.10000
C775        C  0.98315272  0.45630255  0.49479668    -0.12200
C776        C  0.98372094  0.42502058  0.52383375    -0.12200
C777        C  0.99085622  0.43010038  0.57014458     0.10000
C778        C  0.99769742  0.46718891  0.58671755    -0.12200
H779        H  0.00271884  0.52659073  0.57154818     0.14000
H780        H  0.97697925  0.45130344  0.45937836     0.14000
H781        H  0.97797547  0.39696835  0.50989769     0.14000
H782        H  0.00375713  0.47216882  0.62215529     0.14000
C783        C  0.94932159  0.82408668  0.46787554    -0.12100
C784        C  0.95432370  0.79756047  0.44465881    -0.13600
loop_ 
_geom_bond_atom_site_label_1 
_geom_bond_atom_site_label_2 
_geom_bond_distance 
_geom_bond_site_symmetry_2 
_ccdc_geom_bond_type 
N1            N2   1.324       .  A
N1            C5   1.343       .  A
N1           Cu9   2.073       .  S
N2            C3   1.353       .  A
N2           Cu8   2.100       .  S
C3            C4   1.387       .  A
C3            H6   1.082       .  S
C4            C5   1.377       .  A
C4          C392   1.444       .  S
C5            H7   1.082       .  S
Cu8          N11   2.101       .  S
Cu9          N19   2.072       .  S
Cu10         N12   2.060       .  S
Cu10         N18   2.060       .  S
N11          N12   1.325       .  A
N11          C15   1.350       .  A
N12          C13   1.343       .  A
C13          C14   1.374       .  A
C13          H16   1.082       .  S
C14          C15   1.385       .  A
C14         C380   1.439       .  S
C15          H17   1.082       .  S
N18          N19   1.318       .  A
N18          C22   1.343       .  A
N19          C20   1.344       .  A
C20          C21   1.390       .  A
C20          H23   1.081       .  S
C21          C22   1.388       .  A
C21         C382   1.486       .  S
C22          H24   1.081       .  S
N25          N26   1.326       .  A
N25          C29   1.343       .  A
N25         Cu33   2.078       .  S
N26          C27   1.353       .  A
N26         Cu32   2.103       .  S
C27          C28   1.386       .  A
C27          H30   1.082       .  S
C28          C29   1.377       .  A
C28         C377   1.445       .  S
C29          H31   1.082       .  S
Cu32         N35   2.102       .  S
Cu33         N43   2.076       .  S
Cu34         N36   2.058       .  S
Cu34         N42   2.058       .  S
N35          N36   1.324       .  A
N35          C39   1.350       .  A
N36          C37   1.343       .  A
C37          C38   1.375       .  A
C37          H40   1.082       .  S
C38          C39   1.386       .  A
C38         C376   1.441       .  S
C39          H41   1.082       .  S
N42          N43   1.318       .  A
N42          C46   1.342       .  A
N43          C44   1.346       .  A
C44          C45   1.391       .  A
C44          H47   1.081       .  S
C45          C46   1.386       .  A
C45         C385   1.484       .  S
C46          H48   1.081       .  S
C49          C50   1.533       .  S
C49          C55   1.533       .  S
C49          C53   1.525       .  S
C49         C364   1.470       .  S
C50          H57   1.087       .  S
C50          C51   1.360   1_554  D
C51          C52   1.541   1_556  S
C51         C366   1.448       .  S
C52          C56   1.545       .  S
C52          C54   1.559       .  S
C52          H58   1.109   1_554  S
C53          H59   1.087       .  S
C53          C54   1.366       .  D
C54         C372   1.494       .  S
C55          H60   1.086       .  S
C55          C56   1.372       .  D
C56         C368   1.488       .  S
C61          C62   1.530       .  S
C61          C67   1.533       .  S
C61          C65   1.527   1_554  S
C61         C356   1.468   1_554  S
C62          H69   1.086   1_554  S
C62          C63   1.368       .  D
C63          C64   1.542       .  S
C63         C359   1.485       .  S
C64          C68   1.541       .  S
C64          C66   1.560       .  S
C64          H70   1.108       .  S
C65          H71   1.087       .  S
C65          C66   1.368   1_556  D
C66         C371   1.495       .  S
C67          H72   1.087       .  S
C67          C68   1.361       .  D
C68         C358   1.449       .  S
C73          C74   1.533       .  S
C73          C79   1.534       .  S
C73          C77   1.533       .  S
C73         C350   1.472   1_554  S
C74          H81   1.087       .  S
C74          C75   1.357       .  D
C75          C76   1.536       .  S
C75         C379   1.443       .  S
C76          C80   1.542       .  S
C76          C78   1.551       .  S
C76          H82   1.111       .  S
C77          H83   1.084   1_554  S
C77          C78   1.375       .  D
C78         C351   1.498       .  S
C79          H84   1.086   1_554  S
C79          C80   1.370       .  D
C80         C367   1.488       .  S
C85          C86   1.533       .  S
C85         C483   1.533   1_455  S
C85         C481   1.535   1_455  S
C85         C740   1.469       .  S
C86          H93   1.086       .  S
C86          C87   1.368       .  D
C87          C88   1.540       .  S
C87         C360   1.484       .  S
C88          C92   1.536   1_554  S
C88          C90   1.549       .  S
C88          H94   1.112   1_554  S
C89         C477   1.535       .  S
C89          H95   1.084       .  S
C89         C482   1.375       .  D
C90         C481   1.375   1_455  D
C90         C744   1.495   1_455  S
C91         C477   1.534       .  S
C91          H96   1.087       .  S
C91         C484   1.358   1_554  D
C92         C483   1.357   1_456  D
C92         C767   1.443   1_455  S
N97          N98   1.325       .  A
N97         C101   1.343       .  A
N97        Cu105   2.074       .  S
N98          C99   1.352       .  A
N98        Cu104   2.100       .  S
C99         C100   1.386       .  A
C99         H102   1.082       .  S
C100        C101   1.377       .  A
C100        C345   1.444       .  S
C101        H103   1.082       .  S
Cu104       N107   2.100       .  S
Cu105       N115   2.073       .  S
Cu106       N108   2.070       .  S
Cu106       N114   2.069       .  S
N107        N108   1.324       .  A
N107        C111   1.350       .  A
N108        C109   1.345       .  A
C109        C110   1.377       .  A
C109        H112   1.083       .  S
C110        C111   1.386       .  A
C110        C357   1.444       .  S
C111        H113   1.082       .  S
N114        N115   1.319       .  A
N114        C118   1.344       .  A
N115        C116   1.345       .  A
C116        C117   1.391       .  A
C116        H119   1.080       .  S
C117        C118   1.389       .  A
C117        C336   1.489       .  S
C118        H120   1.081       .  S
N121        N122   1.325       .  A
N121        C125   1.343       .  A
N121       Cu129   2.076       .  S
N122        C123   1.353       .  A
N122       Cu128   2.104       .  S
C123        C124   1.386       .  A
C123        H126   1.082       .  S
C124        C125   1.377       .  A
C124        C334   1.445       .  S
C125        H127   1.082       .  S
Cu128       N131   2.104       .  S
Cu129       N139   2.075       .  S
Cu130       N132   2.063       .  S
Cu130       N138   2.063       .  S
N131        N132   1.324       .  A
N131        C135   1.351       .  A
N132        C133   1.344       .  A
C133        C134   1.376       .  A
C133        H136   1.082       .  S
C134        C135   1.387       .  A
C134        C365   1.444       .  S
C135        H137   1.082       .  S
N138        N139   1.319       .  A
N138        C142   1.342       .  A
N139        C140   1.346       .  A
C140        C141   1.392       .  A
C140        H143   1.080       .  S
C141        C142   1.388       .  A
C141        C339   1.489       .  S
C142        H144   1.081       .  S
N145        N146   1.323       .  A
N145        C149   1.342       .  A
N145       Cu153   2.062       .  S
N146        C147   1.350       .  A
N146       Cu152   2.086       .  S
C147        C148   1.384       .  A
C147        H150   1.082       .  S
C148        C149   1.376       .  A
C148        C363   1.438       .  S
C149        H151   1.082       .  S
Cu152       N155   2.086       .  S
Cu153       N163   2.062       .  S
Cu154       N156   2.070       .  S
Cu154       N162   2.069       .  S
N155        N156   1.325       .  A
N155        C159   1.347       .  A
N156        C157   1.344       .  A
C157        C158   1.377       .  A
C157        H160   1.082       .  S
C158        C159   1.381       .  A
C158        C321   1.437       .  S
C159        H161   1.082       .  S
N162        N163   1.319       .  A
N162        C166   1.344       .  A
N163        C164   1.343       .  A
C164        C165   1.386       .  A
C164        H167   1.081       .  S
C165        C166   1.388       .  A
C165        C327   1.481       .  S
C166        H168   1.082       .  S
N169        N170   1.323       .  A
N169        C173   1.342       .  A
N169       Cu177   2.066       .  S
N170        C171   1.349       .  A
N170       Cu176   2.080       .  S
C171        C172   1.382       .  A
C171        H174   1.082       .  S
C172        C173   1.377       .  A
C172        C355   1.436       .  S
C173        H175   1.082       .  S
Cu176       N179   2.080       .  S
Cu177       N187   2.066       .  S
Cu178       N180   2.066       .  S
Cu178       N186   2.065       .  S
N179        N180   1.324       .  A
N179        C183   1.347       .  A
N180        C181   1.343       .  A
C181        C182   1.376       .  A
C181        H184   1.082       .  S
C182        C183   1.381       .  A
C182        C319   1.434       .  S
C183        H185   1.082       .  S
N186        N187   1.319       .  A
N186        C190   1.343       .  A
N187        C188   1.343       .  A
C188        C189   1.388       .  A
C188        H191   1.081   1_556  S
C189        C190   1.389       .  A
C189        C324   1.485   1_545  S
C190        H192   1.081   1_545  S
C193        C194   1.536       .  S
C193        C199   1.535       .  S
C193        C197   1.537       .  S
C193        C333   1.476       .  S
C194        H201   1.086       .  S
C194        C195   1.369       .  D
C195        C196   1.536       .  S
C195        C311   1.483       .  S
C196        C200   1.531       .  S
C196        C198   1.543       .  S
C196        H202   1.112       .  S
C197        H203   1.084       .  S
C197        C198   1.377       .  D
C198        C316   1.495       .  S
C199        H204   1.087       .  S
C199        C200   1.359       .  D
C200        C322   1.441       .  S
C205        C206   1.535       .  S
C205        C211   1.536       .  S
C205        C209   1.538       .  S
C205        C346   1.475       .  S
C206        H213   1.087       .  S
C206        C207   1.359       .  D
C207        C208   1.530       .  S
C207        C320   1.438       .  S
C208        C212   1.535       .  S
C208        C210   1.543       .  S
C208        H214   1.112       .  S
C209        H215   1.084       .  S
C209        C210   1.377       .  D
C210        C315   1.494   1_545  S
C211        H216   1.086       .  S
C211        C212   1.369       .  D
C212        C308   1.483       .  S
C217        C218   1.534       .  S
C217        C223   1.534       .  S
C217        C221   1.537       .  S
C217        C391   1.476       .  S
C218        H225   1.086       .  S
C218        C219   1.369       .  D
C219        C220   1.537       .  S
C219        C312   1.484       .  S
C220        C224   1.533       .  S
C220        C222   1.545       .  S
C220        H226   1.112       .  S
C221        H227   1.084       .  S
C221        C222   1.378       .  D
C222        C303   1.497       .  S
C223        H228   1.087       .  S
C223        C224   1.359       .  D
C224        C301   1.441       .  S
C229        C235   1.535       .  S
C229        C622   1.535   1_455  S
C229        C625   1.537   1_455  S
C229        C770   1.474       .  S
C230        C621   1.535       .  S
C230        H237   1.087       .  S
C230        C623   1.359       .  D
C231        C232   1.531       .  S
C231        C622   1.359   1_455  D
C231        C692   1.438   1_455  S
C232        C236   1.536       .  S
C232        C626   1.544       .  S
C232        H238   1.112       .  S
C233        C621   1.540       .  S
C233        H239   1.084       .  S
C233        C234   1.378       .  D
C234        C624   1.544       .  S
C234        C304   1.494   1_545  S
C235        H240   1.086       .  S
C235        C236   1.369       .  D
C236        C307   1.483       .  S
N241        N242   1.324       .  A
N241        C245   1.344       .  A
N241       Cu249   2.080       .  S
N242        C243   1.351       .  A
N242       Cu248   2.087       .  S
C243        C244   1.384       .  A
C243        H246   1.081       .  S
C244        C245   1.379       .  A
C244        C347   1.443       .  S
C245        H247   1.082       .  S
Cu248       N251   2.087       .  S
Cu249       N259   2.080       .  S
Cu250       N252   2.069       .  S
Cu250       N258   2.068       .  S
N251        N252   1.324       .  A
N251        C255   1.348       .  A
N252        C253   1.344       .  A
C253        C254   1.376       .  A
C253        H256   1.082       .  S
C254        C255   1.382       .  A
C254        C299   1.437       .  S
C255        H257   1.082       .  S
N258        N259   1.319       .  A
N258        C262   1.345       .  A
N259        C260   1.346       .  A
C260        C261   1.391       .  A
C260        H263   1.081       .  S
C261        C262   1.389       .  A
C261        C290   1.490   1_545  S
C262        H264   1.081   1_545  S
N265        N266   1.325       .  A
N265        C269   1.343       .  A
N265       Cu273   2.079       .  S
N266        C267   1.350       .  A
N266       Cu272   2.086       .  S
C267        C268   1.383       .  A
C267        H270   1.082       .  S
C268        C269   1.378       .  A
C268        C349   1.441       .  S
C269        H271   1.082       .  S
Cu272       N275   2.086       .  S
Cu273       N283   2.078       .  S
Cu274       N276   2.067       .  S
Cu274       N282   2.067       .  S
N275        N276   1.324       .  A
N275        C279   1.348       .  A
N276        C277   1.343       .  A
C277        C278   1.376       .  A
C277        H280   1.083       .  S
C278        C279   1.382       .  A
C278        C302   1.436       .  S
C279        H281   1.082       .  S
N282        N283   1.319       .  A
N282        C286   1.344       .  A
N283        C284   1.346       .  A
C284        C285   1.391       .  A
C284        H287   1.081   1_556  S
C285        C286   1.389       .  A
C285        C293   1.490   1_556  S
C286        H288   1.081       .  S
C289        C290   1.406       .  A
C289        C294   1.399   1_554  A
C289        H295   1.081   1_565  S
C290        C291   1.407       .  A
C291        C684   1.400       .  A
C291        H688   1.081       .  S
C292        C683   1.398       .  A
C292        C685   1.405       .  A
C292        H297   1.082       .  S
C293        C294   1.407   1_554  A
C293        C684   1.406       .  A
C294        H298   1.081       .  S
H296        C683   1.082       .  S
C299        C300   1.205       .  T
C300        C623   1.441       .  S
C301        C302   1.205       .  T
C303        H305   1.083       .  S
C303        C304   1.349       .  D
C304        H306   1.083       .  S
C307        H309   1.086       .  S
C307        C308   1.342       .  D
C308        H310   1.086       .  S
C311        H313   1.086       .  S
C311        C312   1.343       .  D
C312        H314   1.086       .  S
C315        H317   1.083       .  S
C315        C316   1.348       .  D
C316        H318   1.083       .  S
C319        C320   1.204       .  T
C321        C322   1.205       .  T
C323        C324   1.406   1_554  A
C323        C328   1.397       .  A
C323        H329   1.081   1_565  S
C324        C325   1.406       .  A
C325        C326   1.396   1_556  A
C325        H330   1.081       .  S
C326        C327   1.405       .  A
C326        H331   1.082       .  S
C327        C328   1.404       .  A
C328        H332   1.082       .  S
C333        C334   1.211       .  T
C335        C336   1.407       .  A
C335        C340   1.399       .  A
C335        H341   1.081       .  S
C336        C337   1.405       .  A
C337        C338   1.398       .  A
C337        H342   1.081       .  S
C338        C339   1.407       .  A
C338        H343   1.080       .  S
C339        C340   1.406       .  A
C340        H344   1.081       .  S
C345        C346   1.210       .  T
C347        C348   1.209       .  T
C348        C477   1.474       .  S
C349        C350   1.208       .  T
C351        H353   1.083       .  S
C351        C352   1.354       .  D
C352        H746   1.083   1_554  S
C352        C482   1.498       .  S
H354        C744   1.082   1_556  S
C355        C356   1.206       .  T
C357        C358   1.210       .  T
C359        H361   1.086       .  S
C359        C360   1.346       .  D
C360        H362   1.086   1_554  S
C363        C364   1.207       .  T
C365        C366   1.210       .  T
C367        H369   1.086       .  S
C367        C368   1.346       .  D
C368        H370   1.086   1_554  S
C371        H373   1.085       .  S
C371        C372   1.342       .  D
C372        H374   1.084       .  S
C375        C484   1.445       .  S
C375        C376   1.208       .  T
C377        C378   1.211       .  T
C378        C621   1.477       .  S
C379        C380   1.207       .  T
C381        C382   1.405       .  A
C381        C386   1.397       .  A
C381        H387   1.081       .  S
C382        C383   1.407       .  A
C383        C384   1.398       .  A
C383        H388   1.082       .  S
C384        C385   1.405       .  A
C384        H389   1.082       .  S
C385        C386   1.406       .  A
C386        H390   1.081       .  S
C391        C392   1.211       .  T
N393        N394   1.325       .  A
N393        C397   1.343       .  A
N393       Cu401   2.076       .  S
N394        C395   1.352       .  A
N394       Cu400   2.101       .  S
C395        C396   1.386       .  A
C395        H398   1.082       .  S
C396        C397   1.377       .  A
C396        C784   1.444       .  S
C397        H399   1.082       .  S
Cu400       N403   2.101       .  S
Cu401       N411   2.075       .  S
Cu402       N404   2.055       .  S
Cu402       N410   2.054       .  S
N403        N404   1.324       .  A
N403        C407   1.350       .  A
N404        C405   1.342       .  A
C405        C406   1.374       .  A
C405        H408   1.082       .  S
C406        C407   1.386       .  A
C406        C772   1.439       .  S
C407        H409   1.082       .  S
N410        N411   1.319       .  A
N410        C414   1.341       .  A
N411        C412   1.346       .  A
C412        C413   1.390       .  A
C412        H415   1.081       .  S
C413        C414   1.385       .  A
C413        C774   1.482       .  S
C414        H416   1.081       .  S
N417        N418   1.325       .  A
N417        C421   1.343       .  A
N417       Cu425   2.074       .  S
N418        C419   1.352       .  A
N418       Cu424   2.098       .  S
C419        C420   1.385       .  A
C419        H422   1.082       .  S
C420        C421   1.377       .  A
C420        C769   1.443   1_655  S
C421        H423   1.082       .  S
Cu424       N427   2.098       .  S
Cu425       N435   2.073       .  S
Cu426       N428   2.055       .  S
Cu426       N434   2.055       .  S
N427        N428   1.324       .  A
N427        C431   1.350       .  A
N428        C429   1.342       .  A
C429        C430   1.374       .  A
C429        H432   1.082       .  S
C430        C431   1.385       .  A
C430        C768   1.438       .  S
C431        H433   1.082       .  S
N434        N435   1.318       .  A
N434        C438   1.342       .  A
N435        C436   1.345       .  A
C436        C437   1.390       .  A
C436        H439   1.081       .  S
C437        C438   1.385       .  A
C437        C777   1.482       .  S
C438        H440   1.081       .  S
C441        C442   1.532       .  S
C441        C447   1.533       .  S
C441        C445   1.526       .  S
C441        C756   1.469       .  S
C442        H449   1.087       .  S
C442        C443   1.360   1_554  D
C443        C444   1.540   1_556  S
C443        C758   1.447       .  S
C444        C448   1.543       .  S
C444        C446   1.557       .  S
C444        H450   1.109   1_554  S
C445        H451   1.087       .  S
C445        C446   1.366       .  D
C446        C764   1.491       .  S
C447        H452   1.086       .  S
C447        C448   1.371       .  D
C448        C760   1.486       .  S
C453        C454   1.531       .  S
C453        C459   1.534       .  S
C453        C457   1.527   1_554  S
C453        C748   1.469   1_554  S
C454        H461   1.086   1_554  S
C454        C455   1.368       .  D
C455        C456   1.542       .  S
C455        C751   1.486       .  S
C456        C460   1.541       .  S
C456        C458   1.559       .  S
C456        H462   1.108       .  S
C457        H463   1.087       .  S
C457        C458   1.368   1_556  D
C458        C763   1.493       .  S
C459        H464   1.087       .  S
C459        C460   1.361       .  D
C460        C750   1.449       .  S
C465        C466   1.534       .  S
C465        C471   1.534       .  S
C465        C469   1.531       .  S
C465        C742   1.471   1_554  S
C466        H473   1.087       .  S
C466        C467   1.358       .  D
C467        C468   1.536       .  S
C467        C771   1.444       .  S
C468        C472   1.541       .  S
C468        C470   1.551       .  S
C468        H474   1.111       .  S
C469        H475   1.083   1_554  S
C469        C470   1.375       .  D
C470        C743   1.497       .  S
C471        H476   1.086   1_554  S
C471        C472   1.370       .  D
C472        C759   1.486       .  S
C477        C478   1.534       .  S
C478        H485   1.086       .  S
C478        C479   1.369       .  D
C479        C480   1.541       .  S
C479        C752   1.486       .  S
C480        C484   1.536   1_554  S
C480        C482   1.550       .  S
C480        H486   1.111   1_554  S
C481        H487   1.084       .  S
C483        H488   1.087       .  S
N489        N490   1.325       .  A
N489        C493   1.344       .  A
N489       Cu497   2.077       .  S
N490        C491   1.353       .  A
N490       Cu496   2.105       .  S
C491        C492   1.387       .  A
C491        H494   1.082       .  S
C492        C493   1.378       .  A
C492        C737   1.448       .  S
C493        H495   1.082       .  S
Cu496       N499   2.105       .  S
Cu497       N507   2.076       .  S
Cu498       N500   2.070       .  S
Cu498       N506   2.069       .  S
N499        N500   1.325       .  A
N499        C503   1.350       .  A
N500        C501   1.345       .  A
C501        C502   1.377       .  A
C501        H504   1.082       .  S
C502        C503   1.386       .  A
C502        C749   1.444       .  S
C503        H505   1.082       .  S
N506        N507   1.319       .  A
N506        C510   1.344       .  A
N507        C508   1.345       .  A
C508        C509   1.390       .  A
C508        H511   1.081       .  S
C509        C510   1.389       .  A
C509        C728   1.489       .  S
C510        H512   1.081       .  S
N513        N514   1.325       .  A
N513        C517   1.344       .  A
N513       Cu521   2.078       .  S
N514        C515   1.353       .  A
N514       Cu520   2.105       .  S
C515        C516   1.387       .  A
C515        H518   1.082       .  S
C516        C517   1.378       .  A
C516        C726   1.448       .  S
C517        H519   1.082       .  S
Cu520       N523   2.105       .  S
Cu521       N531   2.077       .  S
Cu522       N524   2.064       .  S
Cu522       N530   2.064       .  S
N523        N524   1.325       .  A
N523        C527   1.350       .  A
N524        C525   1.344       .  A
C525        C526   1.376       .  A
C525        H528   1.082       .  S
C526        C527   1.386       .  A
C526        C757   1.443       .  S
C527        H529   1.082       .  S
N530        N531   1.319       .  A
N530        C534   1.343       .  A
N531        C532   1.345       .  A
C532        C533   1.391       .  A
C532        H535   1.081       .  S
C533        C534   1.388       .  A
C533        C731   1.489       .  S
C534        H536   1.081       .  S
N537        N538   1.323       .  A
N537        C541   1.342       .  A
N537       Cu545   2.065       .  S
N538        C539   1.349       .  A
N538       Cu544   2.084       .  S
C539        C540   1.383       .  A
C539        H542   1.082       .  S
C540        C541   1.376       .  A
C540        C755   1.437       .  S
C541        H543   1.082       .  S
Cu544       N547   2.085       .  S
Cu545       N555   2.064       .  S
Cu546       N548   2.068       .  S
Cu546       N554   2.067       .  S
N547        N548   1.324       .  A
N547        C551   1.347       .  A
N548        C549   1.344       .  A
C549        C550   1.376       .  A
C549        H552   1.082       .  S
C550        C551   1.381       .  A
C550        C713   1.436       .  S
C551        H553   1.082       .  S
N554        N555   1.319       .  A
N554        C558   1.344       .  A
N555        C556   1.343       .  A
C556        C557   1.388       .  A
C556        H559   1.081       .  S
C557        C558   1.389       .  A
C557        C719   1.485       .  S
C558        H560   1.081       .  S
N561        N562   1.323       .  A
N561        C565   1.341       .  A
N561       Cu569   2.063       .  S
N562        C563   1.349       .  A
N562       Cu568   2.084       .  S
C563        C564   1.383       .  A
C563        H566   1.082       .  S
C564        C565   1.375       .  A
C564        C747   1.437       .  S
C565        H567   1.082       .  S
Cu568       N571   2.085       .  S
Cu569       N579   2.062       .  S
Cu570       N572   2.066       .  S
Cu570       N578   2.065       .  S
N571        N572   1.325       .  A
N571        C575   1.347       .  A
N572        C573   1.343       .  A
C573        C574   1.375       .  A
C573        H576   1.082       .  S
C574        C575   1.381       .  A
C574        C711   1.435       .  S
C575        H577   1.082       .  S
N578        N579   1.318       .  A
N578        C582   1.344       .  A
N579        C580   1.342       .  A
C580        C581   1.388       .  A
C580        H583   1.081   1_556  S
C581        C582   1.389       .  A
C581        C716   1.485   1_546  S
C582        H584   1.081   1_545  S
C585        C586   1.536       .  S
C585        C591   1.535       .  S
C585        C589   1.540       .  S
C585        C725   1.480       .  S
C586        H593   1.086       .  S
C586        C587   1.370       .  D
C587        C588   1.537       .  S
C587        C703   1.484       .  S
C588        C592   1.531       .  S
C588        C590   1.544       .  S
C588        H594   1.112       .  S
C589        H595   1.084       .  S
C589        C590   1.378       .  D
C590        C708   1.497       .  S
C591        H596   1.087       .  S
C591        C592   1.359       .  D
C592        C714   1.440       .  S
C597        C598   1.535       .  S
C597        C603   1.536       .  S
C597        C601   1.540       .  S
C597        C738   1.479       .  S
C598        H605   1.087       .  S
C598        C599   1.359       .  D
C599        C600   1.531       .  S
C599        C712   1.439       .  S
C600        C604   1.536       .  S
C600        C602   1.544       .  S
C600        H606   1.112       .  S
C601        H607   1.084       .  S
C601        C602   1.378       .  D
C602        C707   1.497   1_545  S
C603        H608   1.086       .  S
C603        C604   1.369       .  D
C604        C700   1.484       .  S
C609        C610   1.535       .  S
C609        C615   1.534       .  S
C609        C613   1.537       .  S
C609        C783   1.476       .  S
C610        H617   1.086       .  S
C610        C611   1.370       .  D
C611        C612   1.537       .  S
C611        C704   1.484       .  S
C612        C616   1.533       .  S
C612        C614   1.545       .  S
C612        H618   1.112       .  S
C613        H619   1.084       .  S
C613        C614   1.377       .  D
C614        C695   1.495       .  S
C615        H620   1.087       .  S
C615        C616   1.358       .  D
C616        C693   1.440       .  S
C621        C627   1.535       .  S
C622        H629   1.087       .  S
C623        C624   1.531       .  S
C624        C628   1.535       .  S
C624        H630   1.112       .  S
C625        H631   1.084       .  S
C625        C626   1.377   1_655  D
C626        C696   1.494   1_445  S
C627        H632   1.086       .  S
C627        C628   1.369       .  D
C628        C699   1.483       .  S
N633        N634   1.324       .  A
N633        C637   1.343       .  A
N633       Cu641   2.076       .  S
N634        C635   1.349   1_655  A
N634       Cu640   2.079       .  S
C635        C636   1.381       .  A
C635        H638   1.082       .  S
C636        C637   1.379   1_455  A
C636        C739   1.439       .  S
C637        H639   1.082       .  S
Cu640       N643   2.079       .  S
Cu641       N651   2.075       .  S
Cu642       N644   2.064       .  S
Cu642       N650   2.064       .  S
N643        N644   1.324       .  A
N643        C647   1.347       .  A
N644        C645   1.343       .  A
C645        C646   1.376       .  A
C645        H648   1.082       .  S
C646        C647   1.381       .  A
C646        C691   1.434       .  S
C647        H649   1.082       .  S
N650        N651   1.320       .  A
N650        C654   1.344       .  A
N651        C652   1.344       .  A
C652        C653   1.389       .  A
C652        H655   1.081       .  S
C653        C654   1.387       .  A
C653        C682   1.484   1_545  S
C654        H656   1.081   1_545  S
N657        N658   1.324       .  A
N657        C661   1.342       .  A
N657       Cu665   2.072       .  S
N658        C659   1.351       .  A
N658       Cu664   2.090       .  S
C659        C660   1.384       .  A
C659        H662   1.082       .  S
C660        C661   1.376       .  A
C660        C741   1.440       .  S
C661        H663   1.082       .  S
Cu664       N667   2.090       .  S
Cu665       N675   2.071       .  S
Cu666       N668   2.060       .  S
Cu666       N674   2.060       .  S
N667        N668   1.324       .  A
N667        C671   1.349       .  A
N668        C669   1.342       .  A
C669        C670   1.374       .  A
C669        H672   1.082       .  S
C670        C671   1.383       .  A
C670        C694   1.436       .  S
C671        H673   1.082       .  S
N674        N675   1.319       .  A
N674        C678   1.342       .  A
N675        C676   1.345       .  A
C676        C677   1.388       .  A
C676        H679   1.081   1_556  S
C677        C678   1.386       .  A
C677        C685   1.482   1_556  S
C678        H680   1.081       .  S
C681        C682   1.405       .  A
C681        C686   1.396   1_554  A
C681        H687   1.082   1_565  S
C682        C683   1.407       .  A
C684        H689   1.081       .  S
C685        C686   1.405   1_554  A
C686        H690   1.082       .  S
C691        C692   1.204       .  T
C693        C694   1.205       .  T
C695        H697   1.083       .  S
C695        C696   1.349       .  D
C696        H698   1.083       .  S
C699        H701   1.086       .  S
C699        C700   1.343       .  D
C700        H702   1.086       .  S
C703        H705   1.086       .  S
C703        C704   1.343       .  D
C704        H706   1.086       .  S
C707        H709   1.083       .  S
C707        C708   1.349       .  D
C708        H710   1.084       .  S
C711        C712   1.204       .  T
C713        C714   1.205       .  T
C715        C716   1.406       .  A
C715        C720   1.397       .  A
C715        H721   1.081   1_565  S
C716        C717   1.405   1_554  A
C717        C718   1.397   1_556  A
C717        H722   1.081       .  S
C718        C719   1.406       .  A
C718        H723   1.081       .  S
C719        C720   1.405       .  A
C720        H724   1.081       .  S
C725        C726   1.213       .  T
C727        C728   1.407       .  A
C727        C732   1.399       .  A
C727        H733   1.081       .  S
C728        C729   1.406       .  A
C729        C730   1.398       .  A
C729        H734   1.081       .  S
C730        C731   1.407       .  A
C730        H735   1.081       .  S
C731        C732   1.406       .  A
C732        H736   1.081       .  S
C737        C738   1.213       .  T
C739        C740   1.207       .  T
C741        C742   1.208       .  T
C743        H745   1.083       .  S
C743        C744   1.353       .  D
C747        C748   1.206       .  T
C749        C750   1.210       .  T
C751        H753   1.086       .  S
C751        C752   1.346       .  D
C752        H754   1.086   1_554  S
C755        C756   1.206       .  T
C757        C758   1.209       .  T
C759        H761   1.086       .  S
C759        C760   1.345       .  D
C760        H762   1.086   1_554  S
C763        H765   1.085       .  S
C763        C764   1.342       .  D
C764        H766   1.084       .  S
C767        C768   1.206       .  T
C769        C770   1.210       .  T
C771        C772   1.207       .  T
C773        C774   1.404       .  A
C773        C778   1.397       .  A
C773        H779   1.082   1_655  S
C774        C775   1.406       .  A
C775        C776   1.397       .  A
C775        H780   1.082       .  S
C776        C777   1.404       .  A
C776        H781   1.082       .  S
C777        C778   1.407       .  A
C778        H782   1.082   1_655  S
C783        C784   1.211       .  T
