geometry optimzed in LAMMPS
_audit_creation_date              2020-11-30 
_audit_creation_method            'lammps2cif' 
_symmetry_space_group_name_H-M    'P1' 
_symmetry_Int_Tables_number       1 
_symmetry_cell_setting            triclinic 
loop_ 
_symmetry_equiv_pos_as_xyz 
  x,y,z 
_cell_length_a                    33.08089199 
_cell_length_b                    32.891519457122655 
_cell_length_c                    47.652298749543526 
_cell_angle_alpha                 89.73041053149717 
_cell_angle_beta                  90.2048679959972 
_cell_angle_gamma                 121.15079957325389 
loop_ 
_atom_site_label 
_atom_site_type_symbol 
_atom_site_fract_x 
_atom_site_fract_y 
_atom_site_fract_z 
_atom_site_charge 
C1          C  0.33033781  0.16794413  0.34767595     0.46900
H2          H  0.33358342  0.17273929  0.32496721    -0.02100
C3          C  0.33200878  0.16487391  0.40177542     0.46900
H4          H  0.33368075  0.16476836  0.42472839    -0.02100
C5          C  0.35316677  0.21779637  0.36162148    -0.15800
C6          C  0.27965926  0.13526621  0.36039511    -0.15600
C7          C  0.35789679  0.14550065  0.35847213    -0.16000
C8          C  0.35348647  0.21601232  0.39056768    -0.15900
C9          C  0.28101145  0.13784290  0.38985974    -0.15500
C10         C  0.35868161  0.14301690  0.38714584    -0.15800
C11         C  0.16906275  0.34309801  0.15276074     0.46900
H12         H  0.17119007  0.34371806  0.17589434    -0.02100
C13         C  0.16136689  0.34200747  0.09859683     0.46900
H14         H  0.15812892  0.34167184  0.07552152    -0.02100
C15         C  0.21767897  0.36539833  0.13738270    -0.15800
C16         C  0.13866757  0.29210027  0.14081187    -0.15600
C17         C  0.14593532  0.37072579  0.14237250    -0.16000
C18         C  0.21300043  0.36414400  0.10817737    -0.15900
C19         C  0.13585854  0.29134121  0.11169482    -0.15500
C20         C  0.14207925  0.37058405  0.11373462    -0.15800
O21         O  0.40647948  0.49203915  0.03533685    -0.77100
C22         C  0.05058554  0.11713080  0.04341252     0.84000
O23         O  0.46716958  0.03899803  0.44076673    -0.78200
O24         O  0.11037886  0.06161651  0.48260192    -0.79700
O25         O  0.01018237  0.42794749  0.04069201    -0.79500
O26         O  0.40592326  0.42446743  0.03669032    -0.78100
Zn27       Zn  0.46447169  0.03758299  0.01261747     1.55700
O28         O  0.07506469  0.49923350  0.04221446    -0.79500
Cd29       Cd  0.46568123  0.43905912  0.01482273     1.59700
Cd30       Cd  0.49807852  0.00307319  0.45770789     1.59600
O31         O  0.44255001  0.39015513  0.48251428    -0.79500
O32         O  0.49700377  0.00547754  0.99992260    -1.90000
Cd33       Cd  0.06259853  0.04060444  0.01492483     1.59900
O34         O  0.46113780  0.43283862  0.44308927    -0.79400
O35         O  0.07655083  0.10082175  0.03631657    -0.78100
C36         C  0.44651159  0.05824772  0.45237274     0.84400
C37         C  0.38689901  0.44852740  0.04268966     0.84100
O38         O  0.00716435  0.09629031  0.03626041    -0.77000
C39         C  0.05210524  0.45575655  0.04966622     0.84900
O40         O  0.44274319  0.05931930  0.47894896    -0.77100
C41         C  0.44234758  0.39284831  0.45582266     0.85000
C42         C  0.10719574  0.05750484  0.45599438     0.85400
O43         O  0.06741124  0.03614877  0.44335563    -0.79600
O44         O  0.08373789  0.01043562  0.28792665    -0.77100
C45         C  0.43775134  0.39329382  0.29394991     0.84000
O46         O  0.04048489  0.47718172  0.19288514    -0.78200
O47         O  0.38907265  0.45027369  0.22676914    -0.79700
O48         O  0.48815285  0.08056769  0.29168512    -0.79500
O49         O  0.09190013  0.08210723  0.28892425    -0.78100
Zn50       Zn  0.02708033  0.46889334  0.26394043     1.55700
O51         O  0.41757177  0.01700250  0.28349665    -0.79500
Cd52       Cd  0.03267441  0.06947600  0.26649966     1.59700
Cd53       Cd  0.50365900  0.00823694  0.20785887     1.59600
O54         O  0.05520295  0.11965557  0.23490730    -0.79500
O55         O  0.49913635  0.00413984  0.24999362    -1.90000
Cd56       Cd  0.43169184  0.47127271  0.26180457     1.59900
O57         O  0.03769015  0.07855259  0.19501719    -0.79400
O58         O  0.41372806  0.41199971  0.28674863    -0.78100
C59         C  0.05529150  0.45332895  0.20584375     0.84400
C60         C  0.10599331  0.05382440  0.29536838     0.84100
O61         O  0.48058357  0.41144391  0.28630363    -0.77000
C62         C  0.44333853  0.05792964  0.29440337     0.84900
O63         O  0.05083100  0.44695750  0.23228303    -0.77100
C64         C  0.05494264  0.11774878  0.20820207     0.85000
C65         C  0.39574396  0.45456287  0.20031597     0.85400
O66         O  0.43691816  0.47470675  0.18953774    -0.79600
C67         C  0.07191714  0.16135411  0.06069871    -0.03900
C68         C  0.10166187  0.16699278  0.08349447    -0.01000
C69         C  0.12395043  0.20946600  0.09922649     0.04000
C70         C  0.11500363  0.24676990  0.09351075    -0.06500
C71         C  0.08499211  0.24063593  0.07033876    -0.01000
C72         C  0.06419262  0.19862642  0.05401543     0.04000
C73         C  0.10878133  0.12832025  0.09135939     0.38600
C74         C  0.07342208  0.27631825  0.06326675     0.38600
C75         C  0.03574125  0.19440413  0.02966003     0.37000
C76         C  0.15719499  0.21374462  0.12056491     0.37000
N77         N  0.01321697  0.19109175  0.01019075    -0.37800
N78         N  0.18271495  0.21386810  0.13725714    -0.37800
N79         N  0.06350869  0.30385529  0.05642810    -0.37200
N80         N  0.11457516  0.09768395  0.09770236    -0.37200
C81         C  0.25286519  0.38136101  0.08703418    -0.03900
C82         C  0.27461126  0.35535527  0.08133291    -0.01000
C83         C  0.31994094  0.37801126  0.06907815     0.04000
C84         C  0.33988097  0.42459272  0.05753882    -0.03900
C85         C  0.31016009  0.44405777  0.05636199    -0.01000
C86         C  0.26439899  0.41869032  0.06804641     0.04000
C87         C  0.24564285  0.30426527  0.07923050     0.38600
C88         C  0.32342084  0.48721470  0.04078977     0.38600
C89         C  0.22687659  0.41670678  0.05127237     0.37000
C90         C  0.34365549  0.35135659  0.06739962     0.37000
N91         N  0.19766100  0.41446161  0.03673827    -0.37800
N92         N  0.36174976  0.32930130  0.06601493    -0.37800
N93         N  0.33370602  0.02168132  0.02849882    -0.37200
N94         N  0.22439200  0.26373050  0.07544039    -0.37200
C95         C  0.11931021  0.39428489  0.09879471    -0.03900
C96         C  0.06981733  0.37432487  0.09986590    -0.01000
C97         C  0.04806898  0.39526588  0.08492652     0.04000
C98         C  0.07541320  0.43680030  0.06854130    -0.03900
C99         C  0.12541069  0.45985458  0.07036748    -0.01000
C100        C  0.14695004  0.43906295  0.08563089     0.04000
C101        C  0.04064796  0.33300120  0.11715081     0.38600
C102        C  0.15567770  0.50584321  0.05723773     0.38600
C103        C  0.19779881  0.46614336  0.08888864     0.37000
C104        C  0.49760560  0.37519704  0.08802644     0.37000
N105        N  0.23849985  0.48978231  0.09060346    -0.37800
N106        N  0.45744317  0.35909344  0.09098813    -0.37800
N107        N  0.18021842  0.04286963  0.04732428    -0.37200
N108        N  0.01582319  0.30100674  0.13124411    -0.37200
C109        C  0.07527977  0.16277314  0.19196824    -0.03900
C110        C  0.04921334  0.16757406  0.17014769    -0.01000
C111        C  0.06834689  0.21041360  0.15476522     0.04000
C112        C  0.11543406  0.24850809  0.15979051    -0.03900
C113        C  0.14061177  0.24371389  0.18271696    -0.01000
C114        C  0.12042550  0.20134463  0.19865279     0.04000
C115        C  0.50174561  0.12860563  0.16396292     0.38600
C116        C  0.18847386  0.28045022  0.18970673     0.38600
C117        C  0.14740654  0.19663916  0.22126718     0.37000
C118        C  0.03781819  0.21480054  0.13469264     0.37000
N119        N  0.16892571  0.19301501  0.23927399    -0.37800
N120        N  0.01176991  0.21547502  0.11870728    -0.37800
N121        N  0.22630615  0.30845082  0.19686193    -0.37200
N122        N  0.46400838  0.09752926  0.15897611    -0.37200
C123        C  0.26432364  0.38859733  0.15346166    -0.03900
C124        C  0.27463486  0.42330810  0.17454316    -0.01000
C125        C  0.31942891  0.44795833  0.18754227     0.04000
C126        C  0.35345177  0.43565311  0.18196348    -0.03900
C127        C  0.34305482  0.39960380  0.16248185    -0.01000
C128        C  0.29787906  0.37427811  0.14977910     0.04000
C129        C  0.23812067  0.42850658  0.18743469     0.38600
C130        C  0.37749674  0.38564573  0.15733161     0.38600
C131        C  0.28340843  0.32741004  0.13968377     0.37000
C132        C  0.33025721  0.48569167  0.20747938     0.37000
N133        N  0.27552811  0.29008352  0.13341470    -0.37800
N134        N  0.33896339  0.01566242  0.22336947    -0.37800
N135        N  0.40493431  0.37457413  0.15316880    -0.37200
N136        N  0.21106133  0.43258006  0.20054948    -0.37200
C137        C  0.07902705  0.43260163  0.19008092    -0.03900
C138        C  0.06453926  0.38439617  0.19382472    -0.01000
C139        C  0.08848871  0.36496388  0.18008742     0.04000
C140        C  0.12654695  0.39317871  0.16163902    -0.03900
C141        C  0.14409345  0.44274694  0.16067343    -0.01000
C142        C  0.11933888  0.46188696  0.17375685     0.04000
C143        C  0.02403079  0.35423859  0.21148736     0.38600
C144        C  0.19197196  0.47555568  0.15169234     0.38600
C145        C  0.13736222  0.01255591  0.17198014     0.37000
C146        C  0.07407066  0.31628552  0.18634810     0.37000
N147        N  0.15177993  0.05293419  0.17059697    -0.37800
N148        N  0.06047519  0.27764943  0.19339570    -0.37800
N149        N  0.23111624  0.50357163  0.14711858    -0.37200
N150        N  0.49182115  0.33025533  0.22558682    -0.37200
C151        C  0.42483989  0.07888767  0.43444854    -0.03900
C152        C  0.45283467  0.12345504  0.42149135    -0.01000
C153        C  0.43158376  0.14323144  0.40495432     0.04000
C154        C  0.38173058  0.11990480  0.40252823    -0.03900
C155        C  0.35439062  0.07358253  0.41402357    -0.01000
C156        C  0.37574692  0.05354021  0.43012902     0.04000
C157        C  0.50355832  0.14970109  0.42588553     0.38600
C158        C  0.30442498  0.04463908  0.40869676     0.38600
C159        C  0.34718233  0.00621611  0.44205436     0.37000
C160        C  0.46194144  0.18713312  0.39017850     0.37000
N161        N  0.32453940  0.46848699  0.45150869    -0.37800
N162        N  0.48862431  0.22145656  0.37840809    -0.37800
N163        N  0.26434813  0.01887859  0.40577245    -0.37200
N164        N  0.04396922  0.17100452  0.42954951    -0.37200
C165        C  0.37177669  0.25900250  0.40984032    -0.03900
C166        C  0.36031684  0.29457857  0.40486475    -0.01000
C167        C  0.38509082  0.33903919  0.41864283     0.04000
C168        C  0.41897871  0.34755307  0.43945993    -0.03900
C169        C  0.42792222  0.31108074  0.44620506    -0.01000
C170        C  0.40400911  0.26696208  0.43203167     0.04000
C171        C  0.32127965  0.28541548  0.38678826     0.38600
C172        C  0.46420641  0.31998270  0.46672349     0.38600
C173        C  0.41410209  0.23085145  0.44064370     0.37000
C174        C  0.37505921  0.37593334  0.41152096     0.37000
N175        N  0.42239479  0.20294730  0.44914594    -0.37800
N176        N  0.36730791  0.40541047  0.40558747    -0.37800
N177        N  0.49336449  0.32721115  0.48289181    -0.37200
N178        N  0.29055600  0.28057139  0.37271845    -0.37200
C179        C  0.23893271  0.12253514  0.40932197    -0.03900
C180        C  0.20273219  0.13201180  0.40220378    -0.01000
C181        C  0.15908987  0.10924582  0.41660674     0.04000
C182        C  0.15175272  0.07905394  0.43954589    -0.03900
C183        C  0.18874537  0.07261236  0.44833703    -0.01000
C184        C  0.23283344  0.09633180  0.43455731     0.04000
C185        C  0.20902959  0.16455836  0.37979483     0.38600
C186        C  0.18036346  0.03837300  0.47035655     0.38600
C187        C  0.27112127  0.09453687  0.44806975     0.37000
C188        C  0.12126763  0.11626948  0.40731442     0.37000
N189        N  0.30064044  0.09348533  0.46058321    -0.37800
N190        N  0.09092005  0.12126015  0.39955150    -0.37800
N191        N  0.17362236  0.51038506  0.48740086    -0.37200
N192        N  0.21080588  0.18928005  0.36191924    -0.37200
C193        C  0.42036796  0.08045154  0.30988857    -0.03900
C194        C  0.44127544  0.13062410  0.30998720    -0.01000
C195        C  0.41942752  0.15175800  0.32432001     0.04000
C196        C  0.37713502  0.12347554  0.33926199    -0.03900
C197        C  0.35316988  0.07377843  0.33589823    -0.01000
C198        C  0.37548254  0.05218596  0.32273105     0.04000
C199        C  0.48449275  0.16103769  0.29451462     0.38600
C200        C  0.30331192  0.04515285  0.34227323     0.38600
C201        C  0.35186504  0.00070907  0.32295840     0.37000
C202        C  0.43907387  0.20243898  0.32176860     0.37000
N203        N  0.33286336  0.95966093  0.32325158    -0.37800
N204        N  0.45575538  0.24286770  0.31850604    -0.37800
N205        N  0.26300397  0.02136138  0.34569965    -0.37200
N206        N  0.01893820  0.18545763  0.28222681    -0.37200
C207        C  0.37521149  0.26330792  0.34425032    -0.03900
C208        C  0.34901245  0.26932297  0.32261225    -0.01000
C209        C  0.36889278  0.31185207  0.30668996     0.04000
C210        C  0.41568883  0.34917205  0.31163296    -0.03900
C211        C  0.44205807  0.34356208  0.33305245    -0.01000
C212        C  0.42229828  0.30127386  0.34909606     0.04000
C213        C  0.30051148  0.23312260  0.31689521     0.38600
C214        C  0.48992269  0.38179580  0.33909566     0.38600
C215        C  0.45222976  0.29787236  0.37003843     0.37000
C216        C  0.34104681  0.31654826  0.28466359     0.37000
N217        N  0.47821514  0.29876516  0.38666856    -0.37800
N218        N  0.31866320  0.32020705  0.26722769    -0.37800
N219        N  0.02821822  0.41178536  0.34393709    -0.37200
N220        N  0.26167197  0.20643038  0.31092887    -0.37200
C221        C  0.23550474  0.10342310  0.34203336    -0.03900
C222        C  0.19074854  0.06952725  0.35359909    -0.01000
C223        C  0.14870849  0.05819707  0.33946856     0.04000
C224        C  0.15031357  0.07161560  0.31135101    -0.03900
C225        C  0.19382460  0.09347213  0.29718981    -0.01000
C226        C  0.23594438  0.10666523  0.31208899     0.04000
C227        C  0.18624153  0.03794334  0.37615374     0.38600
C228        C  0.19497502  0.10051656  0.26700646     0.38600
C229        C  0.27576983  0.11356793  0.29568903     0.37000
C230        C  0.10366368  0.03210198  0.35388925     0.37000
N231        N  0.30669316  0.11813096  0.28197499    -0.37800
N232        N  0.06788237  0.01200292  0.36556016    -0.37800
N233        N  0.19579139  0.10599078  0.24295816    -0.37200
N234        N  0.17858837  0.01016964  0.39350862    -0.37200
C235        C  0.33033780  0.16794401  0.84767637     0.46900
H236        H  0.33358308  0.17273895  0.82496748    -0.02100
C237        C  0.33200912  0.16487409  0.90177579     0.46900
H238        H  0.33368126  0.16476863  0.92472883    -0.02100
C239        C  0.35316690  0.21779634  0.86162180    -0.15800
C240        C  0.27965936  0.13526614  0.86039564    -0.15600
C241        C  0.35789689  0.14550062  0.85847247    -0.16000
C242        C  0.35348677  0.21601242  0.89056803    -0.15900
C243        C  0.28101172  0.13784305  0.88986027    -0.15500
C244        C  0.35868189  0.14301706  0.88714619    -0.15800
C245        C  0.16906264  0.34309785  0.65276059     0.46900
H246        H  0.17118954  0.34371768  0.67589425    -0.02100
C247        C  0.16136735  0.34200758  0.59859670     0.46900
H248        H  0.15812965  0.34167206  0.57552129    -0.02100
C249        C  0.21767904  0.36539825  0.63738275    -0.15800
C250        C  0.13866763  0.29210015  0.64081167    -0.15600
C251        C  0.14593541  0.37072576  0.64237226    -0.16000
C252        C  0.21300076  0.36414403  0.60817740    -0.15900
C253        C  0.13585889  0.29134123  0.61169459    -0.15500
C254        C  0.14207968  0.37058422  0.61373436    -0.15800
O255        O  0.40648021  0.49203949  0.53533716    -0.77100
C256        C  0.05058661  0.11713082  0.54341224     0.84000
O257        O  0.46716942  0.03899774  0.94076680    -0.78200
O258        O  0.11037887  0.06161748  0.98260229    -0.79700
O259        O  0.01018300  0.42794824  0.54069183    -0.79500
O260        O  0.40592340  0.42446746  0.53669025    -0.78100
Zn261      Zn  0.46447134  0.03758325  0.51261737     1.55700
O262        O  0.07506508  0.49923436  0.54221456    -0.79500
Cd263      Cd  0.46568114  0.43905875  0.51482252     1.59700
Cd264      Cd  0.49807807  0.00307259  0.95770783     1.59600
O265        O  0.44255031  0.39015548  0.98251446    -0.79500
O266        O  0.49700379  0.00547799  0.49992265    -1.90000
Cd267      Cd  0.06259874  0.04060398  0.51492456     1.59900
O268        O  0.46113838  0.43283895  0.94308942    -0.79400
O269        O  0.07655166  0.10082152  0.53631625    -0.78100
C270        C  0.44651161  0.05824753  0.95237292     0.84400
C271        C  0.38689952  0.44852766  0.54268987     0.84100
O272        O  0.00716534  0.09629038  0.53626031    -0.77000
C273        C  0.05210579  0.45575732  0.54966616     0.84900
O274        O  0.44274336  0.05931904  0.97894916    -0.77100
C275        C  0.44234808  0.39284865  0.95582282     0.85000
C276        C  0.10719595  0.05750564  0.95599477     0.85400
O277        O  0.06741152  0.03614931  0.94335594    -0.79600
O278        O  0.08373811  0.01043586  0.78792722    -0.77100
C279        C  0.43775168  0.39329403  0.79395043     0.84000
O280        O  0.04048570  0.47718279  0.69288469    -0.78200
O281        O  0.38907257  0.45027323  0.72676944    -0.79700
O282        O  0.48815276  0.08056755  0.79168522    -0.79500
O283        O  0.09190023  0.08210742  0.78892461    -0.78100
Zn284      Zn  0.02708022  0.46889335  0.76393989     1.55700
O285        O  0.41757160  0.01700256  0.78349660    -0.79500
Cd286      Cd  0.03267454  0.06947612  0.76649982     1.59700
Cd287      Cd  0.50365919  0.00823733  0.70785858     1.59600
O288        O  0.05520311  0.11965559  0.73490735    -0.79500
O289        O  0.49913619  0.00413991  0.74999331    -1.90000
Cd290      Cd  0.43169193  0.47127265  0.76180477     1.59900
O291        O  0.03769043  0.07855242  0.69501734    -0.79400
O292        O  0.41372847  0.41200000  0.78674913    -0.78100
C293        C  0.05529188  0.45332954  0.70584318     0.84400
C294        C  0.10599344  0.05382466  0.79536891     0.84100
O295        O  0.48058390  0.41144404  0.78630414    -0.77000
C296        C  0.44333846  0.05792956  0.79440347     0.84900
O297        O  0.05083097  0.44695757  0.73228242    -0.77100
C298        C  0.05494292  0.11774869  0.70820213     0.85000
C299        C  0.39574383  0.45456256  0.70031627     0.85400
O300        O  0.43691804  0.47470673  0.68953803    -0.79600
C301        C  0.07191851  0.16135436  0.56069826    -0.03900
C302        C  0.10166319  0.16699311  0.58349407    -0.01000
C303        C  0.12395139  0.20946625  0.59922620     0.04000
C304        C  0.11500441  0.24677003  0.59351044    -0.06500
C305        C  0.08499313  0.24063607  0.57033833    -0.01000
C306        C  0.06419397  0.19862666  0.55401492     0.04000
C307        C  0.10878307  0.12832084  0.59135890     0.38600
C308        C  0.07342273  0.27631816  0.56326639     0.38600
C309        C  0.03574277  0.19440439  0.52965943     0.37000
C310        C  0.15719581  0.21374496  0.62056475     0.37000
N311        N  0.01321871  0.19109209  0.51019006    -0.37800
N312        N  0.18271553  0.21386849  0.63725717    -0.37800
N313        N  0.06350894  0.30385492  0.55642780    -0.37200
N314        N  0.11457718  0.09768470  0.59770183    -0.37200
C315        C  0.25286567  0.38136128  0.58703435    -0.03900
C316        C  0.27461147  0.35535535  0.58133276    -0.01000
C317        C  0.31994117  0.37801127  0.56907803     0.04000
C318        C  0.33988159  0.42459309  0.55753914    -0.03900
C319        C  0.31016113  0.44405866  0.55636276    -0.01000
C320        C  0.26439996  0.41869126  0.56804703     0.04000
C321        C  0.24564289  0.30426541  0.57923020     0.38600
C322        C  0.32342244  0.48721626  0.54079111     0.38600
C323        C  0.22687784  0.41670845  0.55127301     0.37000
C324        C  0.34365537  0.35135623  0.56739914     0.37000
N325        N  0.19766254  0.41446375  0.53673885    -0.37800
N326        N  0.36174939  0.32930072  0.56601421    -0.37800
N327        N  0.33370518  0.02168073  0.52849805    -0.37200
N328        N  0.22439192  0.26373068  0.57543987    -0.37200
C329        C  0.11931072  0.39428517  0.59879442    -0.03900
C330        C  0.06981776  0.37432471  0.59986522    -0.01000
C331        C  0.04806939  0.39526579  0.58492589     0.04000
C332        C  0.07541366  0.43680089  0.56854124    -0.03900
C333        C  0.12541113  0.45985558  0.57036791    -0.01000
C334        C  0.14695051  0.43906375  0.58563113     0.04000
C335        C  0.04064815  0.33300040  0.61714961     0.38600
C336        C  0.15567802  0.50584476  0.55723887     0.38600
C337        C  0.19779927  0.46614447  0.58888915     0.37000
C338        C  0.49760560  0.37519792  0.58802732     0.37000
N339        N  0.23850026  0.48978366  0.59060403    -0.37800
N340        N  0.45744340  0.35909523  0.59098931    -0.37800
N341        N  0.18021827  0.04286797  0.54732269    -0.37200
N342        N  0.01582291  0.30100533  0.63124237    -0.37200
C343        C  0.07528003  0.16277298  0.69196816    -0.03900
C344        C  0.04921394  0.16757346  0.67014720    -0.01000
C345        C  0.06834731  0.21041300  0.65476472     0.04000
C346        C  0.11543416  0.24850787  0.65979027    -0.03900
C347        C  0.14061165  0.24371395  0.68271696    -0.01000
C348        C  0.12042542  0.20134483  0.69865294     0.04000
C349        C  0.50174468  0.12860696  0.66396392     0.38600
C350        C  0.18847370  0.28045028  0.68970669     0.38600
C351        C  0.14740628  0.19663992  0.72126766     0.37000
C352        C  0.03781860  0.21479957  0.63469197     0.37000
N353        N  0.16892537  0.19301635  0.73927478    -0.37800
N354        N  0.01177020  0.21547365  0.61870653    -0.37800
N355        N  0.22630601  0.30845084  0.69686184    -0.37200
N356        N  0.46400702  0.09753107  0.65897749    -0.37200
C357        C  0.26432359  0.38859713  0.65346184    -0.03900
C358        C  0.27463435  0.42330720  0.67454376    -0.01000
C359        C  0.31942833  0.44795733  0.68754296     0.04000
C360        C  0.35345157  0.43565276  0.68196383    -0.03900
C361        C  0.34305504  0.39960413  0.66248177    -0.01000
C362        C  0.29787932  0.37427838  0.64977900     0.04000
C363        C  0.23811988  0.42850510  0.68743542     0.38600
C364        C  0.37749740  0.38564681  0.65733108     0.38600
C365        C  0.28340904  0.32741049  0.63968346     0.37000
C366        C  0.33025629  0.48569011  0.70748041     0.37000
N367        N  0.27552909  0.29008416  0.63341420    -0.37800
N368        N  0.33896504  0.01566483  0.72336791    -0.37800
N369        N  0.40493535  0.37457585  0.65316787    -0.37200
N370        N  0.21106010  0.43257793  0.70055021    -0.37200
C371        C  0.07902720  0.43260200  0.69008032    -0.03900
C372        C  0.06453848  0.38439623  0.69382367    -0.01000
C373        C  0.08848774  0.36496367  0.68008645     0.04000
C374        C  0.12654691  0.39317865  0.66163867    -0.03900
C375        C  0.14409413  0.44274702  0.66067349    -0.01000
C376        C  0.11933967  0.46188729  0.67375674     0.04000
C377        C  0.02402909  0.35423857  0.71148566     0.38600
C378        C  0.19197309  0.47555546  0.65169294     0.38600
C379        C  0.13736147  0.01255585  0.67198011     0.37000
C380        C  0.07406836  0.31628473  0.68634645     0.37000
N381        N  0.15177904  0.05293411  0.67059704    -0.37800
N382        N  0.06047184  0.27764818  0.69339344    -0.37800
N383        N  0.23111767  0.50357086  0.64711968    -0.37200
N384        N  0.49182319  0.33025557  0.72558844    -0.37200
C385        C  0.42483993  0.07888763  0.93444882    -0.03900
C386        C  0.45283480  0.12345463  0.92149123    -0.01000
C387        C  0.43158396  0.14323128  0.90495439     0.04000
C388        C  0.38173076  0.11990495  0.90252856    -0.03900
C389        C  0.35439066  0.07358290  0.91402416    -0.01000
C390        C  0.37574686  0.05354064  0.93012974     0.04000
C391        C  0.50355856  0.14970009  0.92588484     0.38600
C392        C  0.30442494  0.04463957  0.90869747     0.38600
C393        C  0.34718205  0.00621706  0.94205570     0.37000
C394        C  0.46194175  0.18713285  0.89017844     0.37000
N395        N  0.32453916  0.46848578  0.95150733    -0.37800
N396        N  0.48862476  0.22145616  0.87840798    -0.37800
N397        N  0.26434804  0.01887928  0.90577321    -0.37200
N398        N  0.04396862  0.17100531  0.92955028    -0.37200
C399        C  0.37177704  0.25900265  0.90984063    -0.03900
C400        C  0.36031717  0.29457869  0.90486505    -0.01000
C401        C  0.38509130  0.33903943  0.91864299     0.04000
C402        C  0.41897929  0.34755341  0.93946007    -0.03900
C403        C  0.42792288  0.31108115  0.94620518    -0.01000
C404        C  0.40400958  0.26696236  0.93203194     0.04000
C405        C  0.32127987  0.28541549  0.88678858     0.38600
C406        C  0.46420736  0.31998332  0.96672345     0.38600
C407        C  0.41410245  0.23085168  0.94064406     0.37000
C408        C  0.37505974  0.37593361  0.91152107     0.37000
N409        N  0.42239490  0.20294735  0.94914626    -0.37800
N410        N  0.36730849  0.40541078  0.90558759    -0.37800
N411        N  0.49336558  0.32721187  0.98289169    -0.37200
N412        N  0.29055621  0.28057138  0.87271881    -0.37200
C413        C  0.23893306  0.12253565  0.90932251    -0.03900
C414        C  0.20273262  0.13201239  0.90220425    -0.01000
C415        C  0.15909026  0.10924649  0.91660715     0.04000
C416        C  0.15175306  0.07905477  0.93954639    -0.03900
C417        C  0.18874580  0.07261346  0.94833777    -0.01000
C418        C  0.23283382  0.09633265  0.93455798     0.04000
C419        C  0.20903005  0.16455870  0.87979514     0.38600
C420        C  0.18036407  0.03837472  0.97035764     0.38600
C421        C  0.27112166  0.09453783  0.94807042     0.37000
C422        C  0.12126803  0.11627017  0.90731474     0.37000
N423        N  0.30064096  0.09348638  0.96058385    -0.37800
N424        N  0.09092048  0.12126086  0.89955182    -0.37800
N425        N  0.17362159  0.51038283  0.98739952    -0.37200
N426        N  0.21080630  0.18928006  0.86191936    -0.37200
C427        C  0.42036801  0.08045144  0.80988883    -0.03900
C428        C  0.44127532  0.13062397  0.80998729    -0.01000
C429        C  0.41942743  0.15175785  0.82432018     0.04000
C430        C  0.37713509  0.12347545  0.83926232    -0.03900
C431        C  0.35317016  0.07377830  0.83589879    -0.01000
C432        C  0.37548292  0.05218589  0.82273164     0.04000
C433        C  0.48449254  0.16103754  0.79451464     0.38600
C434        C  0.30331231  0.04515259  0.84227393     0.38600
C435        C  0.35186597  0.00070905  0.82295952     0.37000
C436        C  0.43907363  0.20243877  0.82176864     0.37000
N437        N  0.33286471  0.95966095  0.82325317    -0.37800
N438        N  0.45575500  0.24286744  0.81850596    -0.37800
N439        N  0.26300436  0.02136095  0.84570042    -0.37200
N440        N  0.01893867  0.18545768  0.78222728    -0.37200
C441        C  0.37521167  0.26330788  0.84425063    -0.03900
C442        C  0.34901267  0.26932293  0.82261252    -0.01000
C443        C  0.36889305  0.31185215  0.80669031     0.04000
C444        C  0.41568906  0.34917222  0.81163346    -0.03900
C445        C  0.44205823  0.34356221  0.83305300    -0.01000
C446        C  0.42229845  0.30127382  0.84909646     0.04000
C447        C  0.30051177  0.23312254  0.81689538     0.38600
C448        C  0.48992278  0.38179604  0.83909636     0.38600
C449        C  0.45222996  0.29787211  0.87003873     0.37000
C450        C  0.34104709  0.31654837  0.78466393     0.37000
N451        N  0.47821531  0.29876474  0.88666884    -0.37800
N452        N  0.31866334  0.32020704  0.76722806    -0.37800
N453        N  0.02821879  0.41178483  0.84393592    -0.37200
N454        N  0.26167224  0.20643026  0.81092897    -0.37200
C455        C  0.23550475  0.10342296  0.84203401    -0.03900
C456        C  0.19074851  0.06952733  0.85359977    -0.01000
C457        C  0.14870847  0.05819728  0.83946922     0.04000
C458        C  0.15031366  0.07161595  0.81135166    -0.03900
C459        C  0.19382475  0.09347241  0.79719049    -0.01000
C460        C  0.23594441  0.10666494  0.81208965     0.04000
C461        C  0.18624139  0.03794353  0.87615455     0.38600
C462        C  0.19497543  0.10051758  0.76700719     0.38600
C463        C  0.27576954  0.11356657  0.79568975     0.37000
C464        C  0.10366359  0.03210208  0.85388984     0.37000
N465        N  0.30669262  0.11812879  0.78197580    -0.37800
N466        N  0.06788220  0.01200291  0.86556067    -0.37800
N467        N  0.19579206  0.10599250  0.74295896    -0.37200
N468        N  0.17858807  0.01017001  0.89350955    -0.37200
C469        C  0.33033769  0.66794389  0.34767613     0.46900
H470        H  0.33358304  0.67273887  0.32496723    -0.02100
C471        C  0.33200882  0.66487389  0.40177555     0.46900
H472        H  0.33368086  0.66476838  0.42472861    -0.02100
C473        C  0.35316669  0.71779618  0.36162159    -0.15800
C474        C  0.27965922  0.63526595  0.36039534    -0.15600
C475        C  0.35789679  0.64550055  0.35847228    -0.16000
C476        C  0.35348649  0.71601224  0.39056782    -0.15900
C477        C  0.28101147  0.63784283  0.38985997    -0.15500
C478        C  0.35868164  0.64301691  0.38714601    -0.15800
C479        C  0.16906256  0.84309745  0.15276054     0.46900
H480        H  0.17118923  0.84371709  0.17589415    -0.02100
C481        C  0.16136772  0.84200757  0.09859661     0.46900
H482        H  0.15813022  0.84167220  0.07552119    -0.02100
C483        C  0.21767908  0.86539790  0.13738282    -0.15800
C484        C  0.13866760  0.79209984  0.14081144    -0.15600
C485        C  0.14593550  0.87072550  0.14237219    -0.16000
C486        C  0.21300105  0.86414392  0.10817747    -0.15900
C487        C  0.13585916  0.79134113  0.11169436    -0.15500
C488        C  0.14207989  0.87058408  0.11373429    -0.15800
O489        O  0.40648074  0.99203960  0.03533729    -0.77100
C490        C  0.05058685  0.61713073  0.04341207     0.84000
O491        O  0.46716876  0.53899722  0.44076669    -0.78200
O492        O  0.11037873  0.56161702  0.48260202    -0.79700
O493        O  0.01018317  0.92794830  0.04069186    -0.79500
O494        O  0.40592384  0.92446753  0.03669034    -0.78100
Zn495      Zn  0.46447071  0.53758307  0.01261739     1.55700
O496        O  0.07506526  0.99923441  0.04221470    -0.79500
Cd497      Cd  0.46568137  0.93905861  0.01482252     1.59700
Cd498      Cd  0.49807788  0.50307266  0.45770787     1.59600
O499        O  0.44255046  0.89015556  0.48251411    -0.79500
O500        O  0.49700344  0.50547805  0.99992278    -1.90000
Cd501      Cd  0.06259851  0.54060355  0.01492441     1.59900
O502        O  0.46113854  0.93283913  0.44308910    -0.79400
O503        O  0.07655180  0.60082137  0.03631594    -0.78100
C504        C  0.44651100  0.55824710  0.45237276     0.84400
C505        C  0.38690005  0.94852778  0.04269002     0.84100
O506        O  0.00716549  0.59629024  0.03626037    -0.77000
C507        C  0.05210595  0.95575732  0.04966622     0.84900
O508        O  0.44274287  0.55931886  0.47894899    -0.77100
C509        C  0.44234815  0.89284877  0.45582247     0.85000
C510        C  0.10719568  0.55750517  0.45599450     0.85400
O511        O  0.06741118  0.53614893  0.44335574    -0.79600
O512        O  0.08373784  0.51043570  0.28792706    -0.77100
C513        C  0.43775149  0.89329399  0.29395043     0.84000
O514        O  0.04048609  0.97718268  0.19288486    -0.78200
O515        O  0.38907277  0.95027311  0.22676941    -0.79700
O516        O  0.48815321  0.58056775  0.29168535    -0.79500
O517        O  0.09190035  0.58210743  0.28892424    -0.78100
Zn518      Zn  0.02708040  0.96889317  0.26394001     1.55700
O519        O  0.41757206  0.51700275  0.28349673    -0.79500
Cd520      Cd  0.03267437  0.56947601  0.26649968     1.59700
Cd521      Cd  0.50365906  0.50823739  0.20785866     1.59600
O522        O  0.05520267  0.61965525  0.23490703    -0.79500
O523        O  0.49913623  0.50413999  0.24999339    -1.90000
Cd524      Cd  0.43169200  0.97127268  0.26180479     1.59900
O525        O  0.03768993  0.57855190  0.19501709    -0.79400
O526        O  0.41372830  0.91199991  0.28674903    -0.78100
C527        C  0.05529214  0.95332933  0.20584336     0.84400
C528        C  0.10599342  0.55382457  0.29536860     0.84100
O529        O  0.48058378  0.91144408  0.28630427    -0.77000
C530        C  0.44333892  0.55792975  0.29440363     0.84900
O531        O  0.05083111  0.94695727  0.23228259    -0.77100
C532        C  0.05494249  0.61774823  0.20820181     0.85000
C533        C  0.39574390  0.95456241  0.20031623     0.85400
O534        O  0.43691805  0.97470656  0.18953792    -0.79600
C535        C  0.07191900  0.66135440  0.06069796    -0.03900
C536        C  0.10166367  0.66699314  0.08349374    -0.01000
C537        C  0.12395186  0.70946627  0.09922587     0.04000
C538        C  0.11500495  0.74677008  0.09351008    -0.06500
C539        C  0.08499383  0.74063620  0.07033792    -0.01000
C540        C  0.06419461  0.69862676  0.05401453     0.04000
C541        C  0.10878358  0.62832088  0.09135854     0.38600
C542        C  0.07342357  0.77631833  0.06326591     0.38600
C543        C  0.03574362  0.69440456  0.02965897     0.37000
C544        C  0.15719602  0.71374485  0.12056451     0.37000
N545        N  0.01321973  0.69109227  0.01018950    -0.37800
N546        N  0.18271565  0.71386827  0.13725700    -0.37800
N547        N  0.06350994  0.80385518  0.05642724    -0.37200
N548        N  0.11457785  0.59768478  0.09770133    -0.37200
C549        C  0.25286619  0.88136137  0.08703456    -0.03900
C550        C  0.27461208  0.85535552  0.08133299    -0.01000
C551        C  0.31994179  0.87801146  0.06907827     0.04000
C552        C  0.33988215  0.92459324  0.05753934    -0.03900
C553        C  0.31016164  0.94405874  0.05636294    -0.01000
C554        C  0.26440048  0.91869137  0.06804726     0.04000
C555        C  0.24564363  0.80426558  0.07923049     0.38600
C556        C  0.32342301  0.98721638  0.04079136     0.38600
C557        C  0.22687838  0.91670874  0.05127332     0.37000
C558        C  0.34365601  0.85135645  0.06739941     0.37000
N559        N  0.19766316  0.91446425  0.03673917    -0.37800
N560        N  0.36174994  0.82930083  0.06601451    -0.37800
N561        N  0.33370319  0.52167903  0.02849670    -0.37200
N562        N  0.22439294  0.76373084  0.07544017    -0.37200
C563        C  0.11931087  0.89428497  0.09879435    -0.03900
C564        C  0.06981783  0.87432419  0.09986488    -0.01000
C565        C  0.04806941  0.89526526  0.08492559     0.04000
C566        C  0.07541377  0.93680076  0.06854124    -0.03900
C567        C  0.12541125  0.95985566  0.07036818    -0.01000
C568        C  0.14695064  0.93906380  0.08563135     0.04000
C569        C  0.04064822  0.83299963  0.11714905     0.38600
C570        C  0.15567819  0.00584508  0.05723938     0.38600
C571        C  0.19779938  0.96614457  0.08888946     0.37000
C572        C  0.49760576  0.87519738  0.08802710     0.37000
N573        N  0.23850038  0.98978382  0.09060434    -0.37800
N574        N  0.45744347  0.85909431  0.09098897    -0.37800
N575        N  0.18021791  0.54286718  0.04732198    -0.37200
N576        N  0.01582297  0.80100431  0.13124167    -0.37200
C577        C  0.07527974  0.66277246  0.19196777    -0.03900
C578        C  0.04921377  0.66757291  0.17014673    -0.01000
C579        C  0.06834726  0.71041245  0.15476424     0.04000
C580        C  0.11543404  0.74850743  0.15978995    -0.03900
C581        C  0.14061143  0.74371347  0.18271666    -0.01000
C582        C  0.12042514  0.70134430  0.19865259     0.04000
C583        C  0.50174501  0.62860709  0.16396385     0.38600
C584        C  0.18847348  0.78044978  0.18970650     0.38600
C585        C  0.14740595  0.69663926  0.22126727     0.37000
C586        C  0.03781868  0.71479887  0.13469134     0.37000
N587        N  0.16892505  0.69301550  0.23927433    -0.37800
N588        N  0.01177033  0.71547275  0.11870577    -0.37800
N589        N  0.22630576  0.80845028  0.19686174    -0.37200
N590        N  0.46400741  0.59753117  0.15897735    -0.37200
C591        C  0.26432354  0.88859673  0.15346198    -0.03900
C592        C  0.27463412  0.92330651  0.17454405    -0.01000
C593        C  0.31942809  0.94795677  0.18754323     0.04000
C594        C  0.35345155  0.93565258  0.18196386    -0.03900
C595        C  0.34305522  0.89960425  0.16248161    -0.01000
C596        C  0.29787944  0.87427827  0.14977895     0.04000
C597        C  0.23811951  0.92850395  0.18743589     0.38600
C598        C  0.37749782  0.88564738  0.15733059     0.38600
C599        C  0.28340917  0.82741025  0.13968363     0.37000
C600        C  0.33025574  0.98568919  0.20748092     0.37000
N601        N  0.27552899  0.79008372  0.13341468    -0.37800
N602        N  0.33896552  0.51566575  0.22336742    -0.37800
N603        N  0.40493592  0.87457672  0.15316711    -0.37200
N604        N  0.21105972  0.93257661  0.20055076    -0.37200
C605        C  0.07902746  0.93260180  0.19008045    -0.03900
C606        C  0.06453824  0.88439584  0.19382344    -0.01000
C607        C  0.08848736  0.86496319  0.18008612     0.04000
C608        C  0.12654692  0.89317831  0.16163862    -0.03900
C609        C  0.14409458  0.94274678  0.16067376    -0.01000
C610        C  0.11934028  0.96188718  0.17375713     0.04000
C611        C  0.02402859  0.85423811  0.21148521     0.38600
C612        C  0.19197370  0.97555506  0.15169341     0.38600
C613        C  0.13735966  0.51255545  0.17197915     0.37000
C614        C  0.07406742  0.81628401  0.18634581     0.37000
N615        N  0.15177642  0.55293347  0.17059548    -0.37800
N616        N  0.06047023  0.77764716  0.19339252    -0.37800
N617        N  0.23111838  0.00357030  0.14712022    -0.37200
N618        N  0.49182408  0.83025545  0.22558893    -0.37200
C619        C  0.42483942  0.57888723  0.43444863    -0.03900
C620        C  0.45283437  0.62345430  0.42149116    -0.01000
C621        C  0.43158358  0.64323099  0.40495431     0.04000
C622        C  0.38173041  0.61990473  0.40252843    -0.03900
C623        C  0.35439025  0.57358269  0.41402399    -0.01000
C624        C  0.37574638  0.55354031  0.43012951     0.04000
C625        C  0.50355811  0.64969976  0.42588489     0.38600
C626        C  0.30442459  0.54463938  0.40869719     0.38600
C627        C  0.34718156  0.50621660  0.44205527     0.37000
C628        C  0.46194139  0.68713262  0.39017853     0.37000
N629        N  0.32454036  0.96848620  0.45150742    -0.37800
N630        N  0.48862453  0.72145610  0.37840823    -0.37800
N631        N  0.26434772  0.51887910  0.40577287    -0.37200
N632        N  0.04396865  0.67100602  0.42955101    -0.37200
C633        C  0.37177678  0.75900250  0.40984042    -0.03900
C634        C  0.36031705  0.79457864  0.40486477    -0.01000
C635        C  0.38509134  0.83903949  0.41864260     0.04000
C636        C  0.41897924  0.84755346  0.43945974    -0.03900
C637        C  0.42792263  0.81108106  0.44620496    -0.01000
C638        C  0.40400929  0.76696223  0.43203175     0.04000
C639        C  0.32127959  0.78541530  0.38678841     0.38600
C640        C  0.46420695  0.81998315  0.46672331     0.38600
C641        C  0.41410210  0.73085151  0.44064391     0.37000
C642        C  0.37506025  0.87593387  0.41152034     0.37000
N643        N  0.42239453  0.70294718  0.44914615    -0.37800
N644        N  0.36730943  0.90541119  0.40558646    -0.37800
N645        N  0.49336507  0.82721171  0.48289164    -0.37200
N646        N  0.29055572  0.78057088  0.37271873    -0.37200
C647        C  0.23893275  0.62253528  0.40932219    -0.03900
C648        C  0.20273228  0.63201195  0.40220393    -0.01000
C649        C  0.15908998  0.60924613  0.41660690     0.04000
C650        C  0.15175271  0.57905422  0.43954604    -0.03900
C651        C  0.18874540  0.57261278  0.44833733    -0.01000
C652        C  0.23283348  0.59633217  0.43455761     0.04000
C653        C  0.20902965  0.66455820  0.37979482     0.38600
C654        C  0.18036365  0.53837388  0.47035711     0.38600
C655        C  0.27112129  0.59453739  0.44807012     0.37000
C656        C  0.12126789  0.61627014  0.40731468     0.37000
N657        N  0.30064041  0.59348586  0.46058368    -0.37800
N658        N  0.09092043  0.62126107  0.39955192    -0.37800
N659        N  0.17362213  0.01038381  0.48740004    -0.37200
N660        N  0.21080603  0.68927957  0.36191900    -0.37200
C661        C  0.42036849  0.58045162  0.30988902    -0.03900
C662        C  0.44127594  0.63062418  0.30998769    -0.01000
C663        C  0.41942779  0.65175800  0.32432035     0.04000
C664        C  0.37713516  0.62347550  0.33926221    -0.03900
C665        C  0.35317026  0.57377839  0.33589860    -0.01000
C666        C  0.37548315  0.55218603  0.32273157     0.04000
C667        C  0.48449363  0.66103794  0.29451546     0.38600
C668        C  0.30331235  0.54515263  0.34227364     0.38600
C669        C  0.35186617  0.50070917  0.32295935     0.37000
C670        C  0.43907393  0.70243893  0.32176879     0.37000
N671        N  0.33286509  0.45966109  0.32325287    -0.37800
N672        N  0.45575518  0.74286756  0.31850605    -0.37800
N673        N  0.26300441  0.52136086  0.34570007    -0.37200
N674        N  0.01893906  0.68545781  0.28222764    -0.37200
C675        C  0.37521146  0.76330772  0.34425047    -0.03900
C676        C  0.34901245  0.76932286  0.32261240    -0.01000
C677        C  0.36889277  0.81185215  0.30669029     0.04000
C678        C  0.41568881  0.84917215  0.31163344    -0.03900
C679        C  0.44205795  0.84356207  0.33305295    -0.01000
C680        C  0.42229823  0.80127364  0.34909634     0.04000
C681        C  0.30051160  0.73312233  0.31689512     0.38600
C682        C  0.48992237  0.88179601  0.33909643     0.38600
C683        C  0.45222977  0.79787193  0.37003862     0.37000
C684        C  0.34104674  0.81654858  0.28466407     0.37000
N685        N  0.47821515  0.79876458  0.38666868    -0.37800
N686        N  0.31866299  0.82020754  0.26722831    -0.37800
N687        N  0.02821835  0.91178548  0.34393647    -0.37200
N688        N  0.26167220  0.70642991  0.31092864    -0.37200
C689        C  0.23550467  0.60342272  0.34203368    -0.03900
C690        C  0.19074843  0.56952709  0.35359944    -0.01000
C691        C  0.14870844  0.55819711  0.33946888     0.04000
C692        C  0.15031365  0.57161571  0.31135130    -0.03900
C693        C  0.19382471  0.59347196  0.29719011    -0.01000
C694        C  0.23594436  0.60666465  0.31208932     0.04000
C695        C  0.18624126  0.53794316  0.37615414     0.38600
C696        C  0.19497536  0.60051681  0.26700676     0.38600
C697        C  0.27576956  0.61356638  0.29568948     0.37000
C698        C  0.10366354  0.53210192  0.35388949     0.37000
N699        N  0.30669272  0.61812863  0.28197560    -0.37800
N700        N  0.06788218  0.51200275  0.36556034    -0.37800
N701        N  0.19579195  0.60599156  0.24295853    -0.37200
N702        N  0.17858782  0.51016943  0.39350905    -0.37200
C703        C  0.33033753  0.66794404  0.84767584     0.46900
H704        H  0.33358319  0.67273924  0.82496713    -0.02100
C705        C  0.33200831  0.66487371  0.90177532     0.46900
H706        H  0.33368024  0.66476814  0.92472828    -0.02100
C707        C  0.35316642  0.71779622  0.86162140    -0.15800
C708        C  0.27965895  0.63526615  0.86039496    -0.15600
C709        C  0.35789646  0.64550050  0.85847206    -0.16000
C710        C  0.35348602  0.71601212  0.89056760    -0.15900
C711        C  0.28101104  0.63784277  0.88985960    -0.15500
C712        C  0.35868113  0.64301667  0.88714576    -0.15800
C713        C  0.16906286  0.84309783  0.65276054     0.46900
H714        H  0.17118996  0.84371768  0.67589422    -0.02100
C715        C  0.16136742  0.84200763  0.59859665     0.46900
H716        H  0.15812971  0.84167218  0.57552124    -0.02100
C717        C  0.21767920  0.86539832  0.63738263    -0.15800
C718        C  0.13866783  0.79210016  0.64081156    -0.15600
C719        C  0.14593548  0.87072565  0.64237232    -0.16000
C720        C  0.21300086  0.86414417  0.60817730    -0.15900
C721        C  0.13585903  0.79134127  0.61169449    -0.15500
C722        C  0.14207960  0.87058406  0.61373442    -0.15800
O723        O  0.40648019  0.99203942  0.53533694    -0.77100
C724        C  0.05058601  0.61713083  0.54341225     0.84000
O725        O  0.46716867  0.53899724  0.94076668    -0.78200
O726        O  0.11037849  0.56161588  0.98260171    -0.79700
O727        O  0.01018289  0.92794784  0.54069180    -0.79500
O728        O  0.40592372  0.92446754  0.53669022    -0.78100
Zn729      Zn  0.46447131  0.53758306  0.51261739     1.55700
O730        O  0.07506508  0.99923392  0.54221456    -0.79500
Cd731      Cd  0.46568155  0.93905899  0.51482247     1.59700
Cd732      Cd  0.49807808  0.50307299  0.95770800     1.59600
O733        O  0.44254998  0.89015515  0.98251414    -0.79500
O734        O  0.49700358  0.50547775  0.49992263    -1.90000
Cd735      Cd  0.06259844  0.54060421  0.51492454     1.59900
O736        O  0.46113773  0.93283862  0.94308911    -0.79400
O737        O  0.07655118  0.60082175  0.53631609    -0.78100
C738        C  0.44651063  0.55824693  0.95237264     0.84400
C739        C  0.38689964  0.94852762  0.54268971     0.84100
O740        O  0.00716468  0.59629025  0.53626047    -0.77000
C741        C  0.05210568  0.95575689  0.54966614     0.84900
O742        O  0.44274238  0.55931870  0.97894887    -0.77100
C743        C  0.44234741  0.89284830  0.95582251     0.85000
C744        C  0.10719525  0.55750418  0.95599418     0.85400
O745        O  0.06741068  0.53614818  0.94335550    -0.79600
O746        O  0.08373777  0.51043573  0.78792652    -0.77100
C747        C  0.43775128  0.89329387  0.79394994     0.84000
O748        O  0.04048590  0.97718237  0.69288529    -0.78200
O749        O  0.38907283  0.95027367  0.72676903    -0.79700
O750        O  0.48815299  0.58056762  0.79168539    -0.79500
O751        O  0.09190006  0.58210735  0.78892396    -0.78100
Zn752      Zn  0.02708068  0.96889346  0.76394047     1.55700
O753        O  0.41757191  0.51700259  0.78349672    -0.79500
Cd754      Cd  0.03267411  0.56947598  0.76649953     1.59700
Cd755      Cd  0.50365909  0.50823733  0.70785886     1.59600
O756        O  0.05520261  0.61965557  0.73490710    -0.79500
O757        O  0.49913635  0.50414001  0.74999362    -1.90000
Cd758      Cd  0.43169181  0.97127277  0.76180451     1.59900
O759        O  0.03769002  0.57855257  0.69501703    -0.79400
O760        O  0.41372803  0.91199976  0.78674857    -0.78100
C761        C  0.05529219  0.95332924  0.70584381     0.84400
C762        C  0.10599323  0.55382454  0.79536817     0.84100
O763        O  0.48058358  0.91144404  0.78630377    -0.77000
C764        C  0.44333869  0.55792961  0.79440359     0.84900
O765        O  0.05083142  0.94695742  0.73228307    -0.77100
C766        C  0.05494246  0.61774875  0.70820187     0.85000
C767        C  0.39574414  0.95456288  0.70031586     0.85400
O768        O  0.43691833  0.97470684  0.68953762    -0.79600
C769        C  0.07191791  0.66135429  0.56069829    -0.03900
C770        C  0.10166253  0.66699289  0.58349408    -0.01000
C771        C  0.12395099  0.70946609  0.59922614     0.04000
C772        C  0.11500426  0.74677004  0.59351035    -0.06500
C773        C  0.08499303  0.74063624  0.57033822    -0.01000
C774        C  0.06419362  0.69862674  0.55401487     0.04000
C775        C  0.10878216  0.62832042  0.59135892     0.38600
C776        C  0.07342317  0.77631866  0.56326610     0.38600
C777        C  0.03574265  0.69440460  0.52965929     0.37000
C778        C  0.15719549  0.71374471  0.62056458     0.37000
N779        N  0.01321871  0.69109227  0.51018985    -0.37800
N780        N  0.18271541  0.71386825  0.63725690    -0.37800
N781        N  0.06350985  0.80385573  0.55642738    -0.37200
N782        N  0.11457610  0.59768415  0.59770182    -0.37200
C783        C  0.25286581  0.88136138  0.58703425    -0.03900
C784        C  0.27461169  0.85535549  0.58133281    -0.01000
C785        C  0.31994135  0.87801136  0.56907803     0.04000
C786        C  0.33988164  0.92459300  0.55753893    -0.03900
C787        C  0.31016104  0.94405839  0.55636238    -0.01000
C788        C  0.26439991  0.91869104  0.56804672     0.04000
C789        C  0.24564319  0.80426554  0.57923037     0.38600
C790        C  0.32342227  0.98721587  0.54079069     0.38600
C791        C  0.22687773  0.91670794  0.55127265     0.37000
C792        C  0.34365568  0.85135648  0.56739935     0.37000
N793        N  0.19766243  0.91446317  0.53673845    -0.37800
N794        N  0.36174985  0.82930109  0.56601461    -0.37800
N795        N  0.33370529  0.52168110  0.52849850    -0.37200
N796        N  0.22439238  0.76373079  0.57544010    -0.37200
C797        C  0.11931055  0.89428491  0.59879452    -0.03900
C798        C  0.06981760  0.87432456  0.59986543    -0.01000
C799        C  0.04806922  0.89526559  0.58492607     0.04000
C800        C  0.07541349  0.93680044  0.56854121    -0.03900
C801        C  0.12541097  0.95985498  0.57036769    -0.01000
C802        C  0.14695033  0.93906324  0.58563101     0.04000
C803        C  0.04064809  0.83300055  0.61715004     0.38600
C804        C  0.15567796  0.00584382  0.55723828     0.38600
C805        C  0.19779909  0.96614381  0.58888888     0.37000
C806        C  0.49760587  0.87519641  0.58802603     0.37000
N807        N  0.23850010  0.98978286  0.59060377    -0.37800
N808        N  0.45744339  0.85909257  0.59098745    -0.37800
N809        N  0.18021815  0.54286917  0.54732354    -0.37200
N810        N  0.01582297  0.80100576  0.63124302    -0.37200
C811        C  0.07527965  0.66277303  0.69196795    -0.03900
C812        C  0.04921338  0.66757383  0.67014722    -0.01000
C813        C  0.06834703  0.71041334  0.65476469     0.04000
C814        C  0.11543414  0.74850787  0.65979011    -0.03900
C815        C  0.14061169  0.74371366  0.68271665    -0.01000
C816        C  0.12042533  0.70134449  0.69865256     0.04000
C817        C  0.50174606  0.62860580  0.66396280     0.38600
C818        C  0.18847384  0.78044982  0.68970636     0.38600
C819        C  0.14740634  0.69663901  0.72126696     0.37000
C820        C  0.03781843  0.71480011  0.63469191     0.37000
N821        N  0.16892555  0.69301479  0.73927374    -0.37800
N822        N  0.01177013  0.71547419  0.61870641    -0.37800
N823        N  0.22630622  0.80845031  0.69686146    -0.37200
N824        N  0.46400893  0.59752937  0.65897583    -0.37200
C825        C  0.26432382  0.88859726  0.65346162    -0.03900
C826        C  0.27463480  0.92330765  0.67454336    -0.01000
C827        C  0.31942886  0.94795795  0.68754243     0.04000
C828        C  0.35345193  0.93565312  0.68196339    -0.03900
C829        C  0.34305522  0.89960419  0.66248150    -0.01000
C830        C  0.29787942  0.87427834  0.64977883     0.04000
C831        C  0.23812045  0.92850562  0.68743508     0.38600
C832        C  0.37749742  0.88564661  0.65733093     0.38600
C833        C  0.28340894  0.82741025  0.63968354     0.37000
C834        C  0.33025697  0.98569101  0.70747972     0.37000
N835        N  0.27552874  0.79008371  0.63341458    -0.37800
N836        N  0.33896427  0.51566366  0.72336877    -0.37800
N837        N  0.40493518  0.87457535  0.65316786    -0.37200
N838        N  0.21106089  0.93257876  0.70054989    -0.37200
C839        C  0.07902758  0.93260179  0.69008088    -0.03900
C840        C  0.06453894  0.88439604  0.69382414    -0.01000
C841        C  0.08848820  0.86496355  0.68008682     0.04000
C842        C  0.12654708  0.89317855  0.66163884    -0.03900
C843        C  0.14409419  0.94274694  0.66067365    -0.01000
C844        C  0.11933990  0.96188719  0.67375719     0.04000
C845        C  0.02402970  0.85423834  0.71148624     0.38600
C846        C  0.19197290  0.97555547  0.65169271     0.38600
C847        C  0.13736099  0.51255585  0.67197928     0.37000
C848        C  0.07406930  0.81628484  0.68634704     0.37000
N849        N  0.15177823  0.55293399  0.67059579    -0.37800
N850        N  0.06047312  0.77764843  0.69339432    -0.37800
N851        N  0.23111731  0.00357106  0.64711910    -0.37200
N852        N  0.49182153  0.83025506  0.72558678    -0.37200
C853        C  0.42483900  0.57888693  0.93444841    -0.03900
C854        C  0.45283390  0.62345427  0.92149121    -0.01000
C855        C  0.43158312  0.64323092  0.90495428     0.04000
C856        C  0.38172993  0.61990442  0.90252817    -0.03900
C857        C  0.35438984  0.57358210  0.91402343    -0.01000
C858        C  0.37574603  0.55353969  0.93012891     0.04000
C859        C  0.50355761  0.64970001  0.92588525     0.38600
C860        C  0.30442421  0.54463870  0.90869652     0.38600
C861        C  0.34718128  0.50621565  0.94205430     0.37000
C862        C  0.46194096  0.68713277  0.89017868     0.37000
N863        N  0.32453994  0.96848755  0.95150925    -0.37800
N864        N  0.48862419  0.72145645  0.87840856    -0.37800
N865        N  0.26434733  0.51887831  0.90577214    -0.37200
N866        N  0.04396897  0.67100467  0.92955006    -0.37200
C867        C  0.37177617  0.75900228  0.90984023    -0.03900
C868        C  0.36031637  0.79457838  0.90486462    -0.01000
C869        C  0.38509050  0.83903911  0.91864260     0.04000
C870        C  0.41897838  0.84755300  0.93945976    -0.03900
C871        C  0.42792177  0.81108059  0.94620493    -0.01000
C872        C  0.40400861  0.76696188  0.93203158     0.04000
C873        C  0.32127904  0.78541517  0.88678815     0.38600
C874        C  0.46420585  0.81998248  0.96672343     0.38600
C875        C  0.41410161  0.73085125  0.94064361     0.37000
C876        C  0.37505925  0.87593341  0.91152044     0.37000
N877        N  0.42239431  0.70294709  0.94914585    -0.37800
N878        N  0.36730823  0.90541062  0.90558658    -0.37800
N879        N  0.49336375  0.82721093  0.98289189    -0.37200
N880        N  0.29055524  0.78057088  0.87271842    -0.37200
C881        C  0.23893224  0.62253486  0.90932181    -0.03900
C882        C  0.20273166  0.63201145  0.90220366    -0.01000
C883        C  0.15908932  0.60924532  0.91660659     0.04000
C884        C  0.15175215  0.57905323  0.93954562    -0.03900
C885        C  0.18874481  0.57261165  0.94833671    -0.01000
C886        C  0.23283294  0.59633135  0.93455707     0.04000
C887        C  0.20902897  0.66455793  0.87979467     0.38600
C888        C  0.18036292  0.53837212  0.97035609     0.38600
C889        C  0.27112082  0.59453659  0.94806955     0.37000
C890        C  0.12126712  0.61626918  0.90731444     0.37000
N891        N  0.30064007  0.59348514  0.96058300    -0.37800
N892        N  0.09091958  0.62125998  0.89955164    -0.37800
N893        N  0.17362276  0.01038595  0.98740142    -0.37200
N894        N  0.21080521  0.68927943  0.86191899    -0.37200
C895        C  0.42036814  0.58045149  0.80988882    -0.03900
C896        C  0.44127587  0.63062407  0.80998773    -0.01000
C897        C  0.41942768  0.65175790  0.82432031     0.04000
C898        C  0.37713484  0.62347542  0.83926197    -0.03900
C899        C  0.35316973  0.57377835  0.83589814    -0.01000
C900        C  0.37548248  0.55218590  0.82273102     0.04000
C901        C  0.48449387  0.66103787  0.79451580     0.38600
C902        C  0.30331178  0.54515273  0.84227307     0.38600
C903        C  0.35186494  0.50070904  0.82295831     0.37000
C904        C  0.43907406  0.70243885  0.82176892     0.37000
N905        N  0.33286328  0.45966087  0.82325149    -0.37800
N906        N  0.45575556  0.74286758  0.81850636    -0.37800
N907        N  0.26300380  0.52136117  0.84569937    -0.37200
N908        N  0.01893850  0.68545756  0.78222726    -0.37200
C909        C  0.37521118  0.76330779  0.84425027    -0.03900
C910        C  0.34901218  0.76932286  0.82261217    -0.01000
C911        C  0.36889256  0.81185201  0.80668991     0.04000
C912        C  0.41568864  0.84917201  0.81163297    -0.03900
C913        C  0.44205780  0.84356198  0.83305251    -0.01000
C914        C  0.42229796  0.80127370  0.84909608     0.04000
C915        C  0.30051120  0.73312254  0.81689512     0.38600
C916        C  0.48992247  0.88179564  0.83909572     0.38600
C917        C  0.45222936  0.79787215  0.87003849     0.37000
C918        C  0.34104659  0.81654826  0.78466355     0.37000
N919        N  0.47821467  0.79876495  0.88666868    -0.37800
N920        N  0.31866298  0.82020713  0.76722766    -0.37800
N921        N  0.02821802  0.91178578  0.84393720    -0.37200
N922        N  0.26167164  0.70643045  0.81092877    -0.37200
C923        C  0.23550455  0.60342303  0.84203317    -0.03900
C924        C  0.19074834  0.56952718  0.85359889    -0.01000
C925        C  0.14870829  0.55819709  0.83946839     0.04000
C926        C  0.15031347  0.57161577  0.81135084    -0.03900
C927        C  0.19382452  0.59347221  0.79718964    -0.01000
C928        C  0.23594428  0.60666518  0.81208880     0.04000
C929        C  0.18624129  0.53794314  0.87615348     0.38600
C930        C  0.19497497  0.60051660  0.76700626     0.38600
C931        C  0.27576979  0.61356800  0.79568881     0.37000
C932        C  0.10366336  0.53210153  0.85388899     0.37000
N933        N  0.30669312  0.61813112  0.78197472    -0.37800
N934        N  0.06788198  0.51200206  0.86555980    -0.37800
N935        N  0.19579124  0.60599060  0.74295797    -0.37200
N936        N  0.17858789  0.51016935  0.89350833    -0.37200
C937        C  0.83033762  0.16794403  0.34767609     0.46900
H938        H  0.83358296  0.17273902  0.32496721    -0.02100
C939        C  0.83200889  0.16487416  0.40177553     0.46900
H940        H  0.83368108  0.16476880  0.42472856    -0.02100
C941        C  0.85316654  0.21779631  0.36162153    -0.15800
C942        C  0.77965918  0.13526607  0.36039536    -0.15600
C943        C  0.85789678  0.14550075  0.35847223    -0.16000
C944        C  0.85348638  0.21601246  0.39056774    -0.15900
C945        C  0.78101150  0.13784299  0.38985999    -0.15500
C946        C  0.85868175  0.14301720  0.38714596    -0.15800
C947        C  0.66906231  0.34309746  0.15276053     0.46900
H948        H  0.67118891  0.34371711  0.17589414    -0.02100
C949        C  0.66136750  0.34200746  0.09859659     0.46900
H950        H  0.65812993  0.34167197  0.07552119    -0.02100
C951        C  0.71767886  0.36539801  0.13738284    -0.15800
C952        C  0.63866749  0.29209983  0.14081147    -0.15600
C953        C  0.64593516  0.37072538  0.14237211    -0.16000
C954        C  0.71300084  0.36414397  0.10817747    -0.15900
C955        C  0.63585907  0.29134106  0.11169440    -0.15500
C956        C  0.64207959  0.37058395  0.11373421    -0.15800
O957        O  0.90648039  0.49203955  0.03533724    -0.77100
C958        C  0.55058713  0.11713070  0.04341207     0.84000
O959        O  0.96716962  0.03899810  0.44076667    -0.78200
O960        O  0.61037894  0.06161710  0.48260211    -0.79700
O961        O  0.51018302  0.42794847  0.04069212    -0.79500
O962        O  0.90592337  0.42446741  0.03669010    -0.78100
Zn963      Zn  0.96447102  0.03758331  0.01261724     1.55700
O964        O  0.57506518  0.49923460  0.04221472    -0.79500
Cd965      Cd  0.96568111  0.43905874  0.01482242     1.59700
Cd966      Cd  0.99807842  0.00307317  0.45770776     1.59600
O967        O  0.94255045  0.39015575  0.48251398    -0.79500
O968        O  0.99700374  0.00547831  0.99992275    -1.90000
Cd969      Cd  0.56259871  0.04060346  0.01492444     1.59900
O970        O  0.96113830  0.43283941  0.44308902    -0.79400
O971        O  0.57655211  0.10082140  0.03631591    -0.78100
C972        C  0.94651166  0.05824779  0.45237271     0.84400
C973        C  0.88689962  0.44852768  0.04268985     0.84100
O974        O  0.50716575  0.09629013  0.03626039    -0.77000
C975        C  0.55210586  0.45575758  0.04966637     0.84900
O976        O  0.94274329  0.05931930  0.47894895    -0.77100
C977        C  0.94234806  0.39284903  0.45582234     0.85000
C978        C  0.60719587  0.05750530  0.45599459     0.85400
O979        O  0.56741139  0.03614900  0.44335583    -0.79600
O980        O  0.58373802  0.01043563  0.28792707    -0.77100
C981        C  0.93775139  0.39329427  0.29395056     0.84000
O982        O  0.54048585  0.47718260  0.19288473    -0.78200
O983        O  0.88907234  0.45027331  0.22676971    -0.79700
O984        O  0.98815298  0.08056768  0.29168550    -0.79500
O985        O  0.59190020  0.08210723  0.28892422    -0.78100
Zn986      Zn  0.52708035  0.46889305  0.26393986     1.55700
O987        O  0.91757181  0.01700271  0.28349678    -0.79500
Cd988      Cd  0.53267444  0.06947583  0.26649951     1.59700
Cd989      Cd  0.00365938  0.00823762  0.20785872     1.59600
O990        O  0.55520284  0.11965511  0.23490695    -0.79500
O991        O  0.99913631  0.00414009  0.24999346    -1.90000
Cd992      Cd  0.93169180  0.47127292  0.26180498     1.59900
O993        O  0.53769033  0.07855176  0.19501702    -0.79400
O994        O  0.91372819  0.41200026  0.28674929    -0.78100
C995        C  0.55529198  0.45332930  0.20584320     0.84400
C996        C  0.60599342  0.05382452  0.29536860     0.84100
O997        O  0.98058358  0.41144425  0.28630426    -0.77000
C998        C  0.94333868  0.05792968  0.29440371     0.84900
O999        O  0.55083098  0.44695719  0.23228242    -0.77100
C1000       C  0.55494271  0.11774809  0.20820173     0.85000
C1001       C  0.89574351  0.45456259  0.20031653     0.85400
O1002       O  0.93691767  0.47470668  0.18953824    -0.79600
C1003       C  0.57191922  0.16135436  0.06069798    -0.03900
C1004       C  0.60166396  0.16699318  0.08349377    -0.01000
C1005       C  0.62395194  0.20946626  0.09922597     0.04000
C1006       C  0.61500488  0.24676996  0.09351018    -0.06500
C1007       C  0.58499370  0.24063601  0.07033802    -0.01000
C1008       C  0.56419468  0.19862664  0.05401458     0.04000
C1009       C  0.60878416  0.12832111  0.09135851     0.38600
C1010       C  0.57342306  0.27631794  0.06326615     0.38600
C1011       C  0.53574375  0.19440442  0.02965898     0.37000
C1012       C  0.65719626  0.21374501  0.12056463     0.37000
N1013       N  0.51321991  0.19109211  0.01018947    -0.37800
N1014       N  0.68271604  0.21386879  0.13725709    -0.37800
N1015       N  0.56350906  0.30385459  0.05642766    -0.37200
N1016       N  0.61457873  0.09768520  0.09770134    -0.37200
C1017       C  0.75286591  0.38136136  0.08703451    -0.03900
C1018       C  0.77461192  0.35535558  0.08133305    -0.01000
C1019       C  0.81994161  0.37801157  0.06907835     0.04000
C1020       C  0.83988176  0.42459316  0.05753918    -0.03900
C1021       C  0.81016115  0.44405853  0.05636266    -0.01000
C1022       C  0.76440006  0.41869116  0.06804707     0.04000
C1023       C  0.74564357  0.30426560  0.07923051     0.38600
C1024       C  0.82342225  0.48721584  0.04079077     0.38600
C1025       C  0.72687782  0.41670819  0.05127307     0.37000
C1026       C  0.84365600  0.35135675  0.06739961     0.37000
N1027       N  0.69766247  0.41446339  0.03673896    -0.37800
N1028       N  0.86175013  0.32930133  0.06601473    -0.37800
N1029       N  0.83370423  0.02167993  0.02849733    -0.37200
N1030       N  0.72439295  0.26373089  0.07544018    -0.37200
C1031       C  0.61931068  0.39428500  0.09879427    -0.03900
C1032       C  0.56981773  0.37432463  0.09986506    -0.01000
C1033       C  0.54806941  0.39526597  0.08492597     0.04000
C1034       C  0.57541374  0.43680115  0.06854139    -0.03900
C1035       C  0.62541121  0.45985568  0.07036798    -0.01000
C1036       C  0.64695052  0.43906369  0.08563112     0.04000
C1037       C  0.54064805  0.33299999  0.11714915     0.38600
C1038       C  0.65567822  0.50584479  0.05723886     0.38600
C1039       C  0.69779923  0.46614428  0.08888915     0.37000
C1040       C  0.99760538  0.37519770  0.08802742     0.37000
N1041       N  0.73850023  0.48978341  0.09060409    -0.37800
N1042       N  0.95744312  0.35909485  0.09098941    -0.37800
N1043       N  0.68021821  0.04286721  0.04732195    -0.37200
N1044       N  0.51582276  0.30100454  0.13124165    -0.37200
C1045       C  0.57527986  0.16277235  0.19196770    -0.03900
C1046       C  0.54921390  0.16757281  0.17014665    -0.01000
C1047       C  0.56834725  0.21041241  0.15476424     0.04000
C1048       C  0.61543399  0.24850741  0.15978997    -0.03900
C1049       C  0.64061140  0.24371343  0.18271667    -0.01000
C1050       C  0.62042523  0.20134420  0.19865255     0.04000
C1051       C  0.00174441  0.12860748  0.16396457     0.38600
C1052       C  0.68847330  0.28044988  0.18970659     0.38600
C1053       C  0.64740608  0.19663915  0.22126720     0.37000
C1054       C  0.53781861  0.21479894  0.13469143     0.37000
N1055       N  0.66892518  0.19301535  0.23927426    -0.37800
N1056       N  0.51177017  0.21547295  0.11870598    -0.37800
N1057       N  0.72630548  0.30845047  0.19686192    -0.37200
N1058       N  0.96400667  0.09753164  0.15897822    -0.37200
C1059       C  0.76432324  0.38859684  0.15346212    -0.03900
C1060       C  0.77463366  0.42330651  0.17454424    -0.01000
C1061       C  0.81942753  0.44795667  0.18754357     0.04000
C1062       C  0.85345119  0.43565276  0.18196413    -0.03900
C1063       C  0.84305503  0.39960460  0.16248178    -0.01000
C1064       C  0.79787925  0.37427853  0.14977914     0.04000
C1065       C  0.73811898  0.42850399  0.18743593     0.38600
C1066       C  0.87749788  0.38564808  0.15733062     0.38600
C1067       C  0.78340919  0.32741060  0.13968375     0.37000
C1068       C  0.83025492  0.48568876  0.20748146     0.37000
N1069       N  0.77552947  0.29008430  0.13341470    -0.37800
N1070       N  0.83896583  0.01566635  0.22336702    -0.37800
N1071       N  0.90493619  0.37457774  0.15316711    -0.37200
N1072       N  0.71105905  0.43257654  0.20055073    -0.37200
C1073       C  0.57902727  0.43260179  0.19008027    -0.03900
C1074       C  0.56453800  0.38439583  0.19382328    -0.01000
C1075       C  0.58848712  0.36496316  0.18008602     0.04000
C1076       C  0.62654663  0.39317827  0.16163848    -0.03900
C1077       C  0.64409428  0.44274676  0.16067354    -0.01000
C1078       C  0.61934001  0.46188716  0.17375691     0.04000
C1079       C  0.52402833  0.35423819  0.21148507     0.38600
C1080       C  0.69197334  0.47555499  0.15169307     0.38600
C1081       C  0.63736100  0.01255565  0.17197980     0.37000
C1082       C  0.57406720  0.31628399  0.18634569     0.37000
N1083       N  0.65177832  0.05293382  0.17059651    -0.37800
N1084       N  0.56047014  0.27764711  0.19339230    -0.37800
N1085       N  0.73111802  0.50357021  0.14711979    -0.37200
N1086       N  0.99182455  0.33025572  0.22558974    -0.37200
C1087       C  0.92483995  0.07888778  0.43444853    -0.03900
C1088       C  0.95283482  0.12345461  0.42149076    -0.01000
C1089       C  0.93158388  0.14323120  0.40495392     0.04000
C1090       C  0.88173065  0.11990510  0.40252837    -0.03900
C1091       C  0.85439052  0.07358320  0.41402416    -0.01000
C1092       C  0.87574682  0.05354092  0.43012963     0.04000
C1093       C  0.00355861  0.14970008  0.42588430     0.38600
C1094       C  0.80442471  0.04463995  0.40869769     0.38600
C1095       C  0.84718202  0.00621739  0.44205561     0.37000
C1096       C  0.96194159  0.18713247  0.39017771     0.37000
N1097       N  0.82454026  0.46848614  0.45150723    -0.37800
N1098       N  0.98862450  0.22145554  0.37840700    -0.37800
N1099       N  0.76434773  0.01887970  0.40577368    -0.37200
N1100       N  0.54396882  0.17100590  0.42955119    -0.37200
C1101       C  0.87177673  0.25900281  0.40984027    -0.03900
C1102       C  0.86031684  0.29457887  0.40486467    -0.01000
C1103       C  0.88509111  0.33903971  0.41864253     0.04000
C1104       C  0.91897926  0.34755380  0.43945954    -0.03900
C1105       C  0.92792299  0.31108159  0.44620459    -0.01000
C1106       C  0.90400955  0.26696270  0.43203145     0.04000
C1107       C  0.82127943  0.28541559  0.38678827     0.38600
C1108       C  0.96420779  0.31998397  0.46672270     0.38600
C1109       C  0.91410267  0.23085215  0.44064351     0.37000
C1110       C  0.87505972  0.37593394  0.41152045     0.37000
N1111       N  0.92239553  0.20294809  0.44914569    -0.37800
N1112       N  0.86730867  0.40541116  0.40558668    -0.37800
N1113       N  0.99336636  0.32721286  0.48289073    -0.37200
N1114       N  0.79055567  0.28057138  0.37271852    -0.37200
C1115       C  0.73893282  0.12253549  0.40932223    -0.03900
C1116       C  0.70273229  0.13201210  0.40220397    -0.01000
C1117       C  0.65909002  0.10924624  0.41660696     0.04000
C1118       C  0.65175285  0.07905440  0.43954613    -0.03900
C1119       C  0.68874558  0.07261306  0.44833742    -0.01000
C1120       C  0.73283366  0.09633254  0.43455772     0.04000
C1121       C  0.70902961  0.16455836  0.37979483     0.38600
C1122       C  0.68036386  0.03837408  0.47035716     0.38600
C1123       C  0.77112162  0.09453821  0.44807035     0.37000
C1124       C  0.62126788  0.11627020  0.40731476     0.37000
N1125       N  0.80064099  0.09348712  0.46058390    -0.37800
N1126       N  0.59092050  0.12126120  0.39955196    -0.37800
N1127       N  0.67362118  0.51038261  0.48739939    -0.37200
N1128       N  0.71080585  0.18927971  0.36191904    -0.37200
C1129       C  0.92036825  0.08045159  0.30988901    -0.03900
C1130       C  0.94127542  0.13062411  0.30998733    -0.01000
C1131       C  0.91942722  0.15175795  0.32431990     0.04000
C1132       C  0.87713498  0.12347555  0.33926212    -0.03900
C1133       C  0.85317029  0.07377838  0.33589884    -0.01000
C1134       C  0.87548314  0.05218599  0.32273180     0.04000
C1135       C  0.98449276  0.16103775  0.29451477     0.38600
C1136       C  0.80331253  0.04515255  0.34227418     0.38600
C1137       C  0.85186639  0.00070920  0.32295980     0.37000
C1138       C  0.93907302  0.20243877  0.32176798     0.37000
N1139       N  0.83286540  0.95966108  0.32325350    -0.37800
N1140       N  0.95575407  0.24286732  0.31850499    -0.37800
N1141       N  0.76300461  0.02136089  0.34570076    -0.37200
N1142       N  0.51893816  0.18545736  0.28222657    -0.37200
C1143       C  0.87521131  0.26330781  0.34425041    -0.03900
C1144       C  0.84901229  0.26932306  0.32261241    -0.01000
C1145       C  0.86889267  0.31185243  0.30669038     0.04000
C1146       C  0.91568874  0.34917237  0.31163352    -0.03900
C1147       C  0.94205799  0.34356208  0.33305289    -0.01000
C1148       C  0.92229817  0.30127355  0.34909621     0.04000
C1149       C  0.80051141  0.23312255  0.31689512     0.38600
C1150       C  0.98992260  0.38179572  0.33909623     0.38600
C1151       C  0.95222977  0.29787150  0.37003831     0.37000
C1152       C  0.84104656  0.31654904  0.28466429     0.37000
N1153       N  0.97821521  0.29876401  0.38666827    -0.37800
N1154       N  0.81866265  0.32020812  0.26722869    -0.37800
N1155       N  0.52821831  0.41178538  0.34393644    -0.37200
N1156       N  0.76167201  0.20643011  0.31092865    -0.37200
C1157       C  0.73550461  0.10342284  0.34203374    -0.03900
C1158       C  0.69074835  0.06952728  0.35359949    -0.01000
C1159       C  0.64870840  0.05819736  0.33946891     0.04000
C1160       C  0.65031367  0.07161590  0.31135131    -0.03900
C1161       C  0.69382474  0.09347206  0.29719015    -0.01000
C1162       C  0.73594436  0.10666468  0.31208937     0.04000
C1163       C  0.68624113  0.03794334  0.37615422     0.38600
C1164       C  0.69497540  0.10051661  0.26700677     0.38600
C1165       C  0.77576951  0.11356611  0.29568962     0.37000
C1166       C  0.60366355  0.03210245  0.35388952     0.37000
N1167       N  0.80669271  0.11812814  0.28197584    -0.37800
N1168       N  0.56788216  0.01200356  0.36556038    -0.37800
N1169       N  0.69579199  0.10599106  0.24295851    -0.37200
N1170       N  0.67858786  0.01016973  0.39350916    -0.37200
C1171       C  0.83033748  0.16794421  0.84767580     0.46900
H1172       H  0.83358310  0.17273943  0.82496697    -0.02100
C1173       C  0.83200845  0.16487396  0.90177522     0.46900
H1174       H  0.83368050  0.16476850  0.92472827    -0.02100
C1175       C  0.85316642  0.21779639  0.86162131    -0.15800
C1176       C  0.77965896  0.13526635  0.86039494    -0.15600
C1177       C  0.85789643  0.14550070  0.85847195    -0.16000
C1178       C  0.85348611  0.21601235  0.89056751    -0.15900
C1179       C  0.78101113  0.13784300  0.88985959    -0.15500
C1180       C  0.85868123  0.14301690  0.88714567    -0.15800
C1181       C  0.66906273  0.34309783  0.65276063     0.46900
H1182       H  0.67118977  0.34371768  0.67589424    -0.02100
C1183       C  0.66136730  0.34200752  0.59859673     0.46900
H1184       H  0.65812952  0.34167193  0.57552134    -0.02100
C1185       C  0.71767907  0.36539825  0.63738274    -0.15800
C1186       C  0.63866771  0.29210013  0.64081168    -0.15600
C1187       C  0.64593540  0.37072566  0.64237231    -0.16000
C1188       C  0.71300076  0.36414410  0.60817740    -0.15900
C1189       C  0.63585892  0.29134121  0.61169463    -0.15500
C1190       C  0.64207949  0.37058401  0.61373442    -0.15800
O1191       O  0.90647991  0.49203949  0.53533696    -0.77100
C1192       C  0.55058627  0.11713080  0.54341238     0.84000
O1193       O  0.96716950  0.03899812  0.94076663    -0.78200
O1194       O  0.61037868  0.06161572  0.98260179    -0.79700
O1195       O  0.51018269  0.42794779  0.54069197    -0.79500
O1196       O  0.90592350  0.42446764  0.53669010    -0.78100
Zn1197     Zn  0.96447152  0.03758329  0.51261733     1.55700
O1198       O  0.57506501  0.49923383  0.54221438    -0.79500
Cd1199     Cd  0.96568138  0.43905913  0.51482242     1.59700
Cd1200     Cd  0.99807860  0.00307353  0.95770798     1.59600
O1201       O  0.94254979  0.39015530  0.98251407    -0.79500
O1202       O  0.99700390  0.00547802  0.49992256    -1.90000
Cd1203     Cd  0.56259865  0.04060416  0.51492459     1.59900
O1204       O  0.96113757  0.43283884  0.94308907    -0.79400
O1205       O  0.57655143  0.10082169  0.53631626    -0.78100
C1206       C  0.94651135  0.05824772  0.95237256     0.84400
C1207       C  0.88689939  0.44852767  0.54268965     0.84100
O1208       O  0.50716499  0.09629026  0.53626050    -0.77000
C1209       C  0.55210558  0.45575687  0.54966615     0.84900
O1210       O  0.94274287  0.05931928  0.97894877    -0.77100
C1211       C  0.94234729  0.39284851  0.95582244     0.85000
C1212       C  0.60719542  0.05750410  0.95599426     0.85400
O1213       O  0.56741085  0.03614806  0.94335559    -0.79600
O1214       O  0.58373778  0.01043557  0.78792652    -0.77100
C1215       C  0.93775135  0.39329407  0.79395001     0.84000
O1216       O  0.54048558  0.47718209  0.69288510    -0.78200
O1217       O  0.88907262  0.45027397  0.72676925    -0.79700
O1218       O  0.98815288  0.08056786  0.79168541    -0.79500
O1219       O  0.59190002  0.08210719  0.78892394    -0.78100
Zn1220     Zn  0.52708059  0.46889329  0.76394035     1.55700
O1221       O  0.91757184  0.01700273  0.78349672    -0.79500
Cd1222     Cd  0.53267422  0.06947582  0.76649939     1.59700
Cd1223     Cd  0.00365929  0.00823753  0.70785901     1.59600
O1224       O  0.55520278  0.11965535  0.73490698    -0.79500
O1225       O  0.99913646  0.00414020  0.74999374    -1.90000
Cd1226     Cd  0.93169165  0.47127297  0.76180471     1.59900
O1227       O  0.53769016  0.07855223  0.69501695    -0.79400
O1228       O  0.91372809  0.41199999  0.78674874    -0.78100
C1229       C  0.55529209  0.45332919  0.70584368     0.84400
C1230       C  0.60599320  0.05382440  0.79536816     0.84100
O1231       O  0.98058360  0.41144421  0.78630375    -0.77000
C1232       C  0.94333855  0.05792978  0.79440356     0.84900
O1233       O  0.55083147  0.44695757  0.73228295    -0.77100
C1234       C  0.55494261  0.11774847  0.70820177     0.85000
C1235       C  0.89574391  0.45456320  0.70031607     0.85400
O1236       O  0.93691807  0.47470715  0.68953780    -0.79600
C1237       C  0.57191811  0.16135426  0.56069843    -0.03900
C1238       C  0.60166286  0.16699300  0.58349419    -0.01000
C1239       C  0.62395120  0.20946619  0.59922624     0.04000
C1240       C  0.61500423  0.24676997  0.59351051    -0.06500
C1241       C  0.58499286  0.24063603  0.57033845    -0.01000
C1242       C  0.56419364  0.19862661  0.55401505     0.04000
C1243       C  0.60878254  0.12832060  0.59135908     0.38600
C1244       C  0.57342268  0.27631825  0.56326645     0.38600
C1245       C  0.53574260  0.19440441  0.52965950     0.37000
C1246       C  0.65719573  0.21374492  0.62056470     0.37000
N1247       N  0.51321860  0.19109210  0.51019009    -0.37800
N1248       N  0.68271562  0.21386846  0.63725700    -0.37800
N1249       N  0.56350920  0.30385522  0.55642781    -0.37200
N1250       N  0.61457647  0.09768436  0.59770204    -0.37200
C1251       C  0.75286568  0.38136130  0.58703433    -0.03900
C1252       C  0.77461167  0.35535551  0.58133295    -0.01000
C1253       C  0.81994126  0.37801139  0.56907806     0.04000
C1254       C  0.83988140  0.42459295  0.55753887    -0.03900
C1255       C  0.81016069  0.44405819  0.55636229    -0.01000
C1256       C  0.76439961  0.41869079  0.56804669     0.04000
C1257       C  0.74564325  0.30426555  0.57923056     0.38600
C1258       C  0.82342172  0.48721557  0.54079050     0.38600
C1259       C  0.72687730  0.41670739  0.55127258     0.37000
C1260       C  0.84365568  0.35135659  0.56739936     0.37000
N1261       N  0.69766188  0.41446232  0.53673840    -0.37800
N1262       N  0.86174993  0.32930129  0.56601461    -0.37800
N1263       N  0.83370628  0.02168202  0.52849913    -0.37200
N1264       N  0.72439263  0.26373081  0.57544032    -0.37200
C1265       C  0.61931045  0.39428488  0.59879448    -0.03900
C1266       C  0.56981752  0.37432476  0.59986558    -0.01000
C1267       C  0.54806922  0.39526600  0.58492636     0.04000
C1268       C  0.57541346  0.43680055  0.56854125    -0.03900
C1269       C  0.62541095  0.45985481  0.57036747    -0.01000
C1270       C  0.64695027  0.43906311  0.58563083     0.04000
C1271       C  0.54064801  0.33300078  0.61715023     0.38600
C1272       C  0.65567793  0.50584335  0.55723769     0.38600
C1273       C  0.69779907  0.46614366  0.58888867     0.37000
C1274       C  0.99760555  0.37519667  0.58802616     0.37000
N1275       N  0.73850007  0.48978261  0.59060355    -0.37800
N1276       N  0.95744307  0.35909300  0.59098763    -0.37800
N1277       N  0.68021849  0.04286933  0.54732356    -0.37200
N1278       N  0.51582298  0.30100596  0.63124324    -0.37200
C1279       C  0.57527980  0.16277276  0.69196785    -0.03900
C1280       C  0.54921352  0.16757362  0.67014717    -0.01000
C1281       C  0.56834708  0.21041320  0.65476474     0.04000
C1282       C  0.61543411  0.24850783  0.65979023    -0.03900
C1283       C  0.64061167  0.24371363  0.68271675    -0.01000
C1284       C  0.62042549  0.20134429  0.69865249     0.04000
C1285       C  0.00174550  0.12860645  0.66396368     0.38600
C1286       C  0.68847375  0.28044992  0.68970652     0.38600
C1287       C  0.64740660  0.19663875  0.72126679     0.37000
C1288       C  0.53781844  0.21480007  0.63469207     0.37000
N1289       N  0.66892589  0.19301462  0.73927359    -0.37800
N1290       N  0.51177016  0.21547435  0.61870663    -0.37800
N1291       N  0.72630609  0.30845041  0.69686162    -0.37200
N1292       N  0.96400808  0.09753018  0.65897705    -0.37200
C1293       C  0.76432362  0.38859723  0.65346181    -0.03900
C1294       C  0.77463445  0.42330756  0.67454353    -0.01000
C1295       C  0.81942848  0.44795799  0.68754263     0.04000
C1296       C  0.85345170  0.43565338  0.68196361    -0.03900
C1297       C  0.84305514  0.39960454  0.66248172    -0.01000
C1298       C  0.79787937  0.37427852  0.64977905     0.04000
C1299       C  0.73812002  0.42850549  0.68743520     0.38600
C1300       C  0.87749755  0.38564729  0.65733106     0.38600
C1301       C  0.78340909  0.32741055  0.63968370     0.37000
C1302       C  0.83025639  0.48569094  0.70747994     0.37000
N1303       N  0.77552897  0.29008408  0.63341460    -0.37800
N1304       N  0.83896465  0.01566443  0.72336831    -0.37800
N1305       N  0.90493543  0.37457626  0.65316786    -0.37200
N1306       N  0.71106049  0.43257861  0.70055003    -0.37200
C1307       C  0.57902753  0.43260177  0.69008082    -0.03900
C1308       C  0.56453903  0.38439606  0.69382421    -0.01000
C1309       C  0.58848824  0.36496359  0.68008683     0.04000
C1310       C  0.62654698  0.39317854  0.66163878    -0.03900
C1311       C  0.64409405  0.44274689  0.66067353    -0.01000
C1312       C  0.61933977  0.46188712  0.67375708     0.04000
C1313       C  0.52402998  0.35423841  0.71148641     0.38600
C1314       C  0.69197272  0.47555535  0.65169255     0.38600
C1315       C  0.63736210  0.01255589  0.67197994     0.37000
C1316       C  0.57406933  0.31628485  0.68634705     0.37000
N1317       N  0.65177982  0.05293417  0.67059684    -0.37800
N1318       N  0.56047308  0.27764844  0.69339429    -0.37800
N1319       N  0.73111716  0.50357085  0.64711888    -0.37200
N1320       N  0.99182215  0.33025568  0.72558755    -0.37200
C1321       C  0.92483961  0.07888762  0.93444831    -0.03900
C1322       C  0.95283438  0.12345479  0.92149089    -0.01000
C1323       C  0.93158344  0.14323126  0.90495393     0.04000
C1324       C  0.88173021  0.11990479  0.90252804    -0.03900
C1325       C  0.85439024  0.07358262  0.91402353    -0.01000
C1326       C  0.87574657  0.05354038  0.93012904     0.04000
C1327       C  0.00355807  0.14970065  0.92588481     0.38600
C1328       C  0.80442450  0.04463911  0.90869686     0.38600
C1329       C  0.84718193  0.00621642  0.94205452     0.37000
C1330       C  0.96194119  0.18713279  0.89017795     0.37000
N1331       N  0.82453972  0.46848713  0.95150859    -0.37800
N1332       N  0.98862419  0.22145604  0.87840743    -0.37800
N1333       N  0.76434761  0.01887866  0.90577276    -0.37200
N1334       N  0.54396915  0.17100451  0.92955006    -0.37200
C1335       C  0.87177635  0.25900256  0.90984010    -0.03900
C1336       C  0.86031643  0.29457859  0.90486457    -0.01000
C1337       C  0.88509052  0.33903929  0.91864257     0.04000
C1338       C  0.91897844  0.34755325  0.93945967    -0.03900
C1339       C  0.92792211  0.31108099  0.94620471    -0.01000
C1340       C  0.90400898  0.26696228  0.93203135     0.04000
C1341       C  0.82127912  0.28541544  0.88678813     0.38600
C1342       C  0.96420653  0.31998312  0.96672302     0.38600
C1343       C  0.91410221  0.23085177  0.94064326     0.37000
C1344       C  0.87505925  0.37593358  0.91152047     0.37000
N1345       N  0.92239514  0.20294773  0.94914539    -0.37800
N1346       N  0.86730828  0.40541087  0.90558674    -0.37800
N1347       N  0.99336475  0.32721181  0.98289128    -0.37200
N1348       N  0.79055541  0.28057137  0.87271840    -0.37200
C1349       C  0.73893240  0.12253510  0.90932184    -0.03900
C1350       C  0.70273181  0.13201171  0.90220376    -0.01000
C1351       C  0.65908949  0.10924549  0.91660670     0.04000
C1352       C  0.65175233  0.07905330  0.93954569    -0.03900
C1353       C  0.68874505  0.07261176  0.94833672    -0.01000
C1354       C  0.73283319  0.09633163  0.93455711     0.04000
C1355       C  0.70902913  0.16455829  0.87979484     0.38600
C1356       C  0.68036321  0.03837216  0.97035609     0.38600
C1357       C  0.77112118  0.09453718  0.94806963     0.37000
C1358       C  0.62126725  0.11626933  0.90731457     0.37000
N1359       N  0.80064052  0.09348602  0.96058317    -0.37800
N1360       N  0.59091972  0.12126015  0.89955183    -0.37800
N1361       N  0.67362194  0.51038501  0.98740075    -0.37200
N1362       N  0.71080534  0.18927978  0.86191916    -0.37200
C1363       C  0.92036792  0.08045163  0.80988872    -0.03900
C1364       C  0.94127526  0.13062415  0.80998723    -0.01000
C1365       C  0.91942717  0.15175803  0.82431986     0.04000
C1366       C  0.87713465  0.12347558  0.83926183    -0.03900
C1367       C  0.85316975  0.07377848  0.83589828    -0.01000
C1368       C  0.87548255  0.05218604  0.82273123     0.04000
C1369       C  0.98449289  0.16103783  0.79451495     0.38600
C1370       C  0.80331184  0.04515275  0.84227334     0.38600
C1371       C  0.85186524  0.00070920  0.82295870     0.37000
C1372       C  0.93907334  0.20243890  0.82176823     0.37000
N1373       N  0.83286367  0.95966104  0.82325193    -0.37800
N1374       N  0.95575462  0.24286756  0.81850534    -0.37800
N1375       N  0.76300392  0.02136103  0.84569978    -0.37200
N1376       N  0.51893800  0.18545732  0.78222663    -0.37200
C1377       C  0.87521120  0.26330792  0.84425020    -0.03900
C1378       C  0.84901217  0.26932306  0.82261217    -0.01000
C1379       C  0.86889258  0.31185228  0.80669000     0.04000
C1380       C  0.91568876  0.34917219  0.81163299    -0.03900
C1381       C  0.94205804  0.34356198  0.83305236    -0.01000
C1382       C  0.92229809  0.30127372  0.84909593     0.04000
C1383       C  0.80051110  0.23312274  0.81689511     0.38600
C1384       C  0.98992298  0.38179544  0.83909539     0.38600
C1385       C  0.95222957  0.29787197  0.87003820     0.37000
C1386       C  0.84104655  0.31654872  0.78466378     0.37000
N1387       N  0.97821506  0.29876474  0.88666822    -0.37800
N1388       N  0.81866284  0.32020772  0.76722801    -0.37800
N1389       N  0.52821834  0.41178574  0.84393721    -0.37200
N1390       N  0.76167154  0.20643070  0.81092879    -0.37200
C1391       C  0.73550450  0.10342324  0.84203321    -0.03900
C1392       C  0.69074829  0.06952752  0.85359896    -0.01000
C1393       C  0.64870827  0.05819734  0.83946841     0.04000
C1394       C  0.65031343  0.07161568  0.81135081    -0.03900
C1395       C  0.69382446  0.09347205  0.79718962    -0.01000
C1396       C  0.73594422  0.10666524  0.81208883     0.04000
C1397       C  0.68624123  0.03794342  0.87615350     0.38600
C1398       C  0.69497486  0.10051629  0.76700624     0.38600
C1399       C  0.77576971  0.11356790  0.79568891     0.37000
C1400       C  0.60366338  0.03210209  0.85388901     0.37000
N1401       N  0.80669307  0.11813094  0.78197490    -0.37800
N1402       N  0.56788199  0.01200289  0.86555984    -0.37800
N1403       N  0.69579110  0.10599036  0.74295796    -0.37200
N1404       N  0.67858796  0.01016958  0.89350830    -0.37200
C1405       C  0.83033773  0.66794421  0.34767600     0.46900
H1406       H  0.83358347  0.67273939  0.32496720    -0.02100
C1407       C  0.83200848  0.66487403  0.40177543     0.46900
H1408       H  0.83368031  0.66476850  0.42472848    -0.02100
C1409       C  0.85316662  0.71779644  0.36162149    -0.15800
C1410       C  0.77965916  0.63526631  0.36039506    -0.15600
C1411       C  0.85789665  0.64550073  0.35847223    -0.16000
C1412       C  0.85348622  0.71601243  0.39056771    -0.15900
C1413       C  0.78101120  0.63784301  0.38985971    -0.15500
C1414       C  0.85868137  0.64301700  0.38714596    -0.15800
C1415       C  0.66906312  0.84309789  0.15276063     0.46900
H1416       H  0.67119033  0.84371782  0.17589423    -0.02100
C1417       C  0.66136751  0.84200763  0.09859673     0.46900
H1418       H  0.65812967  0.84167210  0.07552135    -0.02100
C1419       C  0.71767941  0.86539832  0.13738266    -0.15800
C1420       C  0.63866798  0.79210020  0.14081165    -0.15600
C1421       C  0.64593578  0.87072575  0.14237241    -0.16000
C1422       C  0.71300099  0.86414416  0.10817734    -0.15900
C1423       C  0.63585908  0.79134129  0.11169459    -0.15500
C1424       C  0.64207980  0.87058412  0.11373453    -0.15800
O1425       O  0.90647983  0.99203930  0.03533668    -0.77100
C1426       C  0.55058559  0.61713083  0.04341227     0.84000
O1427       O  0.96716959  0.53899829  0.44076672    -0.78200
O1428       O  0.61037851  0.56161595  0.48260168    -0.79700
O1429       O  0.51018285  0.92794745  0.04069188    -0.79500
O1430       O  0.90592363  0.92446759  0.03669017    -0.78100
Zn1431     Zn  0.96447141  0.53758311  0.01261746     1.55700
O1432       O  0.57506500  0.99923358  0.04221452    -0.79500
Cd1433     Cd  0.96568153  0.93905928  0.01482254     1.59700
Cd1434     Cd  0.99807833  0.50307335  0.45770789     1.59600
O1435       O  0.94255025  0.89015554  0.48251402    -0.79500
O1436       O  0.99700359  0.50547774  0.99992259    -1.90000
Cd1437     Cd  0.56259833  0.54060423  0.01492465     1.59900
O1438       O  0.96113834  0.93283912  0.44308902    -0.79400
O1439       O  0.57655075  0.60082170  0.03631618    -0.78100
C1440       C  0.94651141  0.55824778  0.45237273     0.84400
C1441       C  0.88689940  0.94852757  0.04268953     0.84100
O1442       O  0.50716426  0.59629026  0.03626043    -0.77000
C1443       C  0.55210567  0.95575659  0.04966616     0.84900
O1444       O  0.94274285  0.55931919  0.47894895    -0.77100
C1445       C  0.94234795  0.89284876  0.45582240     0.85000
C1446       C  0.60719523  0.55750428  0.45599415     0.85400
O1447       O  0.56741065  0.53614824  0.44335550    -0.79600
O1448       O  0.58373793  0.51043536  0.28792655    -0.77100
C1449       C  0.93775137  0.89329399  0.29395005     0.84000
O1450       O  0.54048570  0.97718193  0.19288521    -0.78200
O1451       O  0.88907273  0.95027381  0.22676918    -0.79700
O1452       O  0.98815305  0.58056783  0.29168553    -0.79500
O1453       O  0.59190026  0.58210702  0.28892400    -0.78100
Zn1454     Zn  0.52708054  0.96889313  0.26394040     1.55700
O1455       O  0.91757189  0.51700290  0.28349683    -0.79500
Cd1456     Cd  0.53267444  0.56947591  0.26649948     1.59700
Cd1457     Cd  0.00365870  0.50823711  0.20785897     1.59600
O1458       O  0.55520289  0.61965537  0.23490706    -0.79500
O1459       O  0.99913613  0.50414004  0.24999373    -1.90000
Cd1460     Cd  0.93169184  0.97127284  0.26180461     1.59900
O1461       O  0.53768998  0.57855228  0.19501701    -0.79400
O1462       O  0.91372811  0.91199985  0.28674866    -0.78100
C1463       C  0.55529210  0.95332894  0.20584379     0.84400
C1464       C  0.60599343  0.55382420  0.29536819     0.84100
O1465       O  0.98058364  0.91144410  0.28630386    -0.77000
C1466       C  0.94333874  0.55792989  0.29440370     0.84900
O1467       O  0.55083127  0.94695713  0.23228304    -0.77100
C1468       C  0.55494261  0.61774853  0.20820184     0.85000
C1469       C  0.89574418  0.95456303  0.20031603     0.85400
O1470       O  0.93691843  0.97470696  0.18953785    -0.79600
C1471       C  0.57191754  0.66135430  0.06069834    -0.03900
C1472       C  0.60166226  0.66699287  0.08349409    -0.01000
C1473       C  0.62395079  0.70946603  0.09922617     0.04000
C1474       C  0.61500417  0.74677005  0.09351044    -0.06500
C1475       C  0.58499283  0.74063628  0.07033837    -0.01000
C1476       C  0.56419326  0.69862678  0.05401502     0.04000
C1477       C  0.60878185  0.62832039  0.09135889     0.38600
C1478       C  0.57342293  0.77631871  0.06326636     0.38600
C1479       C  0.53574194  0.69440459  0.02965962     0.37000
C1480       C  0.65719527  0.71374451  0.12056462     0.37000
N1481       N  0.51321772  0.69109226  0.01019031    -0.37800
N1482       N  0.68271510  0.71386789  0.13725689    -0.37800
N1483       N  0.56350957  0.80385576  0.05642769    -0.37200
N1484       N  0.61457582  0.59768412  0.09770174    -0.37200
C1485       C  0.75286582  0.88136130  0.08703422    -0.03900
C1486       C  0.77461175  0.85535545  0.08133284    -0.01000
C1487       C  0.81994132  0.87801131  0.06907794     0.04000
C1488       C  0.83988144  0.92459288  0.05753873    -0.03900
C1489       C  0.81016068  0.94405807  0.05636206    -0.01000
C1490       C  0.76439965  0.91869070  0.06804652     0.04000
C1491       C  0.74564322  0.80426545  0.07923045     0.38600
C1492       C  0.82342161  0.98721530  0.04079013     0.38600
C1493       C  0.72687727  0.91670724  0.05127246     0.37000
C1494       C  0.84365561  0.85135637  0.06739910     0.37000
N1495       N  0.69766182  0.91446213  0.03673829    -0.37800
N1496       N  0.86174964  0.82930088  0.06601427    -0.37800
N1497       N  0.83370498  0.52168048  0.02849796    -0.37200
N1498       N  0.72439237  0.76373072  0.07544022    -0.37200
C1499       C  0.61931072  0.89428494  0.09879462    -0.03900
C1500       C  0.56981781  0.87432479  0.09986573    -0.01000
C1501       C  0.54806944  0.89526580  0.08492635     0.04000
C1502       C  0.57541361  0.93680029  0.06854122    -0.03900
C1503       C  0.62541109  0.95985463  0.07036745    -0.01000
C1504       C  0.64695048  0.93906304  0.08563085     0.04000
C1505       C  0.54064838  0.83300103  0.11715054     0.38600
C1506       C  0.65567799  0.00584322  0.05723774     0.38600
C1507       C  0.69779929  0.96614364  0.08888866     0.37000
C1508       C  0.99760541  0.87519568  0.08802561     0.37000
N1509       N  0.73850028  0.98978275  0.09060346    -0.37800
N1510       N  0.95744282  0.85909153  0.09098688    -0.37800
N1511       N  0.68021852  0.54286921  0.04732357    -0.37200
N1512       N  0.51582337  0.80100646  0.13124373    -0.37200
C1513       C  0.57527991  0.66277290  0.19196796    -0.03900
C1514       C  0.54921374  0.66757379  0.17014723    -0.01000
C1515       C  0.56834729  0.71041338  0.15476482     0.04000
C1516       C  0.61543438  0.74850792  0.15979023    -0.03900
C1517       C  0.64061194  0.74371370  0.18271676    -0.01000
C1518       C  0.62042559  0.70134445  0.19865264     0.04000
C1519       C  0.00174535  0.62860583  0.16396311     0.38600
C1520       C  0.68847403  0.78044999  0.18970654     0.38600
C1521       C  0.64740652  0.69663899  0.22126709     0.37000
C1522       C  0.53781862  0.71480028  0.13469221     0.37000
N1523       N  0.66892560  0.69301481  0.23927399    -0.37800
N1524       N  0.51177022  0.71547456  0.11870684    -0.37800
N1525       N  0.72630630  0.80845059  0.19686173    -0.37200
N1526       N  0.96400808  0.59752944  0.15897634    -0.37200
C1527       C  0.76432403  0.88859730  0.15346167    -0.03900
C1528       C  0.77463514  0.92330804  0.17454319    -0.01000
C1529       C  0.81942924  0.94795847  0.18754221     0.04000
C1530       C  0.85345208  0.93565321  0.18196350    -0.03900
C1531       C  0.84305509  0.89960368  0.16248202    -0.01000
C1532       C  0.79787942  0.87427801  0.14977918     0.04000
C1533       C  0.73812086  0.92850629  0.18743479     0.38600
C1534       C  0.87749693  0.88564542  0.15733201     0.38600
C1535       C  0.78340879  0.82740994  0.13968378     0.37000
C1536       C  0.83025760  0.98569206  0.20747914     0.37000
N1537       N  0.77552833  0.79008336  0.13341470    -0.37800
N1538       N  0.83896244  0.51566181  0.22337012    -0.37800
N1539       N  0.90493437  0.87457359  0.15316942    -0.37200
N1540       N  0.71106132  0.93257953  0.20054955    -0.37200
C1541       C  0.57902767  0.93260165  0.19008094    -0.03900
C1542       C  0.56453950  0.88439606  0.19382445    -0.01000
C1543       C  0.58848888  0.86496370  0.18008715     0.04000
C1544       C  0.62654739  0.89317863  0.16163895    -0.03900
C1545       C  0.64409410  0.94274692  0.16067353    -0.01000
C1546       C  0.61933974  0.96188704  0.17375709     0.04000
C1547       C  0.52403063  0.85423837  0.21148678     0.38600
C1548       C  0.69197263  0.97555560  0.15169242     0.38600
C1549       C  0.63736199  0.51255590  0.17197996     0.37000
C1550       C  0.57407039  0.81628512  0.18634758     0.37000
N1551       N  0.65177988  0.55293420  0.17059694    -0.37800
N1552       N  0.56047458  0.77764889  0.19339502    -0.37800
N1553       N  0.73111695  0.00357142  0.14711874    -0.37200
N1554       N  0.99182130  0.83025511  0.22558686    -0.37200
C1555       C  0.92483970  0.57888771  0.43444854    -0.03900
C1556       C  0.95283446  0.62345509  0.42149138    -0.01000
C1557       C  0.93158353  0.64323159  0.40495447     0.04000
C1558       C  0.88173032  0.61990495  0.40252838    -0.03900
C1559       C  0.85439037  0.57358258  0.41402362    -0.01000
C1560       C  0.87574672  0.55354029  0.43012904     0.04000
C1561       C  0.00355815  0.64970111  0.42588547     0.38600
C1562       C  0.80442469  0.54463905  0.40869683     0.38600
C1563       C  0.84718218  0.50621615  0.44205433     0.37000
C1564       C  0.96194124  0.68713339  0.39017875     0.37000
N1565       N  0.82453982  0.96848789  0.45150915    -0.37800
N1566       N  0.98862419  0.72145697  0.37840849    -0.37800
N1567       N  0.76434781  0.51887845  0.40577264    -0.37200
N1568       N  0.54396870  0.67100405  0.42955017    -0.37200
C1569       C  0.87177644  0.75900264  0.40984033    -0.03900
C1570       C  0.86031676  0.79457882  0.40486471    -0.01000
C1571       C  0.88509105  0.83903963  0.41864258     0.04000
C1572       C  0.91897896  0.84755349  0.43945969    -0.03900
C1573       C  0.92792219  0.81108099  0.44620496    -0.01000
C1574       C  0.90400886  0.76696224  0.43203167     0.04000
C1575       C  0.82127950  0.78541568  0.38678823     0.38600
C1576       C  0.96420631  0.81998285  0.46672344     0.38600
C1577       C  0.91410161  0.73085147  0.44064380     0.37000
C1578       C  0.87505991  0.87593404  0.41152040     0.37000
N1579       N  0.92239404  0.70294720  0.44914611    -0.37800
N1580       N  0.86730896  0.90541134  0.40558663    -0.37800
N1581       N  0.99336432  0.82721131  0.48289183    -0.37200
N1582       N  0.79055582  0.78057152  0.37271846    -0.37200
C1583       C  0.73893230  0.62253501  0.40932184    -0.03900
C1584       C  0.70273172  0.63201155  0.40220362    -0.01000
C1585       C  0.65908935  0.60924543  0.41660652     0.04000
C1586       C  0.65175215  0.57905338  0.43954559    -0.03900
C1587       C  0.68874479  0.57261178  0.44833671    -0.01000
C1588       C  0.73283297  0.59633154  0.43455713     0.04000
C1589       C  0.70902916  0.66455821  0.37979470     0.38600
C1590       C  0.68036276  0.53837212  0.47035606     0.38600
C1591       C  0.77112083  0.59453692  0.44806970     0.37000
C1592       C  0.62126710  0.61626909  0.40731423     0.37000
N1593       N  0.80064002  0.59348552  0.46058326    -0.37800
N1594       N  0.59091946  0.62125967  0.39955130    -0.37800
N1595       N  0.67362269  0.01038524  0.48740086    -0.37200
N1596       N  0.71080547  0.68927985  0.36191910    -0.37200
C1597       C  0.92036819  0.58045173  0.30988894    -0.03900
C1598       C  0.94127574  0.63062429  0.30998765    -0.01000
C1599       C  0.91942768  0.65175816  0.32432031     0.04000
C1600       C  0.87713502  0.62347568  0.33926214    -0.03900
C1601       C  0.85316996  0.57377858  0.33589840    -0.01000
C1602       C  0.87548272  0.55218614  0.32273132     0.04000
C1603       C  0.98449338  0.66103796  0.29451540     0.38600
C1604       C  0.80331206  0.54515297  0.34227341     0.38600
C1605       C  0.85186532  0.50070924  0.32295873     0.37000
C1606       C  0.93907404  0.70243914  0.32176887     0.37000
N1607       N  0.83286374  0.45966110  0.32325184    -0.37800
N1608       N  0.95575548  0.74286784  0.31850624    -0.37800
N1609       N  0.76300411  0.52136143  0.34569987    -0.37200
N1610       N  0.51893943  0.68545780  0.28222782    -0.37200
C1611       C  0.87521135  0.76330796  0.34425031    -0.03900
C1612       C  0.84901235  0.76932300  0.32261219    -0.01000
C1613       C  0.86889271  0.81185220  0.30668998     0.04000
C1614       C  0.91568875  0.84917222  0.31163309    -0.03900
C1615       C  0.94205795  0.84356221  0.33305261    -0.01000
C1616       C  0.92229812  0.80127386  0.34909610     0.04000
C1617       C  0.80051144  0.73312256  0.31689509     0.38600
C1618       C  0.98992263  0.88179589  0.33909583     0.38600
C1619       C  0.95222953  0.79787230  0.37003850     0.37000
C1620       C  0.84104672  0.81654845  0.28466361     0.37000
N1621       N  0.97821483  0.79876528  0.38666873    -0.37800
N1622       N  0.81866302  0.82020721  0.26722775    -0.37800
N1623       N  0.52821781  0.91178587  0.34393732    -0.37200
N1624       N  0.76167190  0.70643020  0.31092883    -0.37200
C1625       C  0.73550476  0.60342315  0.34203328    -0.03900
C1626       C  0.69074856  0.56952725  0.35359898    -0.01000
C1627       C  0.64870854  0.55819703  0.33946841     0.04000
C1628       C  0.65031370  0.57161544  0.31135082    -0.03900
C1629       C  0.69382476  0.59347187  0.29718962    -0.01000
C1630       C  0.73594451  0.60666511  0.31208889     0.04000
C1631       C  0.68624157  0.53794322  0.37615353     0.38600
C1632       C  0.69497523  0.60051599  0.26700621     0.38600
C1633       C  0.77577015  0.61356807  0.29568900     0.37000
C1634       C  0.60366366  0.53210175  0.35388906     0.37000
N1635       N  0.80669365  0.61813144  0.28197501    -0.37800
N1636       N  0.56788234  0.51200241  0.36555995    -0.37800
N1637       N  0.69579152  0.60598986  0.24295789    -0.37200
N1638       N  0.67858827  0.51016943  0.39350839    -0.37200
C1639       C  0.83033769  0.66794413  0.84767631     0.46900
H1640       H  0.83358310  0.67273906  0.82496743    -0.02100
C1641       C  0.83200874  0.66487429  0.90177575     0.46900
H1642       H  0.83368073  0.66476890  0.92472881    -0.02100
C1643       C  0.85316659  0.71779645  0.86162172    -0.15800
C1644       C  0.77965920  0.63526619  0.86039550    -0.15600
C1645       C  0.85789680  0.64550084  0.85847254    -0.16000
C1646       C  0.85348635  0.71601260  0.89056795    -0.15900
C1647       C  0.78101142  0.63784315  0.88986014    -0.15500
C1648       C  0.85868164  0.64301728  0.88714628    -0.15800
C1649       C  0.66906295  0.84309773  0.65276043     0.46900
H1650       H  0.67118978  0.84371751  0.67589406    -0.02100
C1651       C  0.66136795  0.84200769  0.59859651     0.46900
H1652       H  0.65813040  0.84167229  0.57552108    -0.02100
C1653       C  0.71767944  0.86539825  0.63738267    -0.15800
C1654       C  0.63866797  0.79210006  0.64081139    -0.15600
C1655       C  0.64593575  0.87072564  0.64237210    -0.16000
C1656       C  0.71300132  0.86414418  0.60817732    -0.15900
C1657       C  0.63585943  0.79134128  0.61169431    -0.15500
C1658       C  0.64208012  0.87058419  0.61373418    -0.15800
O1659       O  0.90648049  0.99203970  0.53533697    -0.77100
C1660       C  0.55058682  0.61713085  0.54341201     0.84000
O1661       O  0.96716929  0.53899781  0.94076678    -0.78200
O1662       O  0.61037840  0.56161702  0.98260204    -0.79700
O1663       O  0.51018328  0.92794824  0.54069185    -0.79500
O1664       O  0.90592389  0.92446777  0.53669004    -0.78100
Zn1665     Zn  0.96447104  0.53758330  0.51261737     1.55700
O1666       O  0.57506539  0.99923436  0.54221454    -0.79500
Cd1667     Cd  0.96568149  0.93905898  0.51482232     1.59700
Cd1668     Cd  0.99807800  0.50307275  0.95770782     1.59600
O1669       O  0.94255053  0.89015590  0.98251415    -0.79500
O1670       O  0.99700357  0.50547814  0.49992265    -1.90000
Cd1671     Cd  0.56259860  0.54060379  0.51492436     1.59900
O1672       O  0.96113869  0.93283955  0.94308918    -0.79400
O1673       O  0.57655186  0.60082163  0.53631584    -0.78100
C1674       C  0.94651145  0.55824760  0.95237286     0.84400
C1675       C  0.88689992  0.94852789  0.54268966     0.84100
O1676       O  0.50716544  0.59629027  0.53626031    -0.77000
C1677       C  0.55210608  0.95575732  0.54966615     0.84900
O1678       O  0.94274315  0.55931913  0.97894910    -0.77100
C1679       C  0.94234831  0.89284916  0.95582252     0.85000
C1680       C  0.60719540  0.55750528  0.95599452     0.85400
O1681       O  0.56741091  0.53614896  0.94335575    -0.79600
O1682       O  0.58373795  0.51043570  0.78792713    -0.77100
C1683       C  0.93775154  0.89329423  0.79395046     0.84000
O1684       O  0.54048603  0.97718255  0.69288470    -0.78200
O1685       O  0.88907283  0.95027340  0.72676942    -0.79700
O1686       O  0.98815288  0.58056775  0.79168548    -0.79500
O1687       O  0.59190029  0.58210736  0.78892436    -0.78100
Zn1688     Zn  0.52708033  0.96889309  0.76393988     1.55700
O1689       O  0.91757169  0.51700272  0.78349701    -0.79500
Cd1690     Cd  0.53267451  0.56947601  0.76649961     1.59700
Cd1691     Cd  0.00365896  0.50823771  0.70785862     1.59600
O1692       O  0.55520303  0.61965552  0.73490709    -0.79500
O1693       O  0.99913596  0.50414014  0.74999337    -1.90000
Cd1694     Cd  0.93169200  0.97127284  0.76180480     1.59900
O1695       O  0.53769031  0.57855221  0.69501713    -0.79400
O1696       O  0.91372834  0.91200017  0.78674911    -0.78100
C1697       C  0.55529212  0.95332922  0.70584318     0.84400
C1698       C  0.60599340  0.55382454  0.79536874     0.84100
O1699       O  0.98058381  0.91144430  0.78630424    -0.77000
C1700       C  0.94333862  0.55792973  0.79440386     0.84900
O1701       O  0.55083106  0.94695712  0.73228241    -0.77100
C1702       C  0.55494286  0.61774854  0.70820187     0.85000
C1703       C  0.89574414  0.95456272  0.70031627     0.85400
O1704       O  0.93691836  0.97470689  0.68953805    -0.79600
C1705       C  0.57191892  0.66135446  0.56069795    -0.03900
C1706       C  0.60166365  0.66699319  0.58349372    -0.01000
C1707       C  0.62395186  0.70946632  0.59922586     0.04000
C1708       C  0.61500498  0.74677016  0.59351009    -0.06500
C1709       C  0.58499388  0.74063634  0.57033790    -0.01000
C1710       C  0.56419458  0.69862686  0.55401454     0.04000
C1711       C  0.60878353  0.62832089  0.59135852     0.38600
C1712       C  0.57342378  0.77631858  0.56326583     0.38600
C1713       C  0.53574344  0.69440459  0.52965903     0.37000
C1714       C  0.65719617  0.71374494  0.62056445     0.37000
N1715       N  0.51321939  0.69109225  0.51018964    -0.37800
N1716       N  0.68271583  0.71386833  0.63725687    -0.37800
N1717       N  0.56351014  0.80385543  0.55642716    -0.37200
N1718       N  0.61457774  0.59768480  0.59770141    -0.37200
C1719       C  0.75286636  0.88136158  0.58703435    -0.03900
C1720       C  0.77461197  0.85535552  0.58133258    -0.01000
C1721       C  0.81994154  0.87801133  0.56907768     0.04000
C1722       C  0.83988204  0.92459324  0.55753893    -0.03900
C1723       C  0.81016173  0.94405897  0.55636278    -0.01000
C1724       C  0.76440062  0.91869160  0.56804708     0.04000
C1725       C  0.74564334  0.80426558  0.57923010     0.38600
C1726       C  0.82342319  0.98721688  0.54079146     0.38600
C1727       C  0.72687855  0.91670875  0.55127301     0.37000
C1728       C  0.84365553  0.85135612  0.56739850     0.37000
N1729       N  0.69766334  0.91446419  0.53673883    -0.37800
N1730       N  0.86174933  0.82930043  0.56601336    -0.37800
N1731       N  0.83370441  0.52168035  0.52849786    -0.37200
N1732       N  0.72439254  0.76373087  0.57543971    -0.37200
C1733       C  0.61931113  0.89428511  0.59879423    -0.03900
C1734       C  0.56981816  0.87432453  0.59986496    -0.01000
C1735       C  0.54806974  0.89526563  0.58492574     0.04000
C1736       C  0.57541399  0.93680087  0.56854117    -0.03900
C1737       C  0.62541147  0.95985566  0.57036789    -0.01000
C1738       C  0.64695088  0.93906378  0.58563104     0.04000
C1739       C  0.54064860  0.83300005  0.61714925     0.38600
C1740       C  0.65567836  0.00584492  0.55723888     0.38600
C1741       C  0.69779961  0.96614454  0.58888907     0.37000
C1742       C  0.99760544  0.87519684  0.58802657     0.37000
N1743       N  0.73850059  0.98978381  0.59060399    -0.37800
N1744       N  0.95744306  0.85909357  0.59098824    -0.37800
N1745       N  0.68021820  0.54286730  0.54732186    -0.37200
N1746       N  0.51582349  0.80100483  0.63124193    -0.37200
C1747       C  0.57528012  0.66277276  0.69196781    -0.03900
C1748       C  0.54921428  0.66757307  0.67014664    -0.01000
C1749       C  0.56834762  0.71041267  0.65476424     0.04000
C1750       C  0.61543440  0.74850767  0.65978993    -0.03900
C1751       C  0.64061176  0.74371374  0.68271667    -0.01000
C1752       C  0.62042543  0.70134468  0.69865272     0.04000
C1753       C  0.00174449  0.62860718  0.66396405     0.38600
C1754       C  0.68847378  0.78045011  0.68970651     0.38600
C1755       C  0.64740608  0.69663981  0.72126757     0.37000
C1756       C  0.53781892  0.71479915  0.63469144     0.37000
N1757       N  0.66892498  0.69301616  0.73927481    -0.37800
N1758       N  0.51177053  0.71547309  0.61870595    -0.37800
N1759       N  0.72630599  0.80845056  0.69686180    -0.37200
N1760       N  0.96400679  0.59753125  0.65897772    -0.37200
C1761       C  0.76432394  0.88859709  0.65346183    -0.03900
C1762       C  0.77463472  0.92330724  0.67454369    -0.01000
C1763       C  0.81942873  0.94795758  0.68754284     0.04000
C1764       C  0.85345190  0.93565286  0.68196382    -0.03900
C1765       C  0.84305526  0.89960394  0.66248194    -0.01000
C1766       C  0.79787961  0.87427829  0.64977907     0.04000
C1767       C  0.73812021  0.92850493  0.68743542     0.38600
C1768       C  0.87749741  0.88564627  0.65733151     0.38600
C1769       C  0.78340930  0.82741041  0.63968344     0.37000
C1770       C  0.83025669  0.98569061  0.70748014     0.37000
N1771       N  0.77552931  0.79008410  0.63341419    -0.37800
N1772       N  0.83896430  0.51566467  0.72336816    -0.37800
N1773       N  0.90493515  0.87457496  0.65316850    -0.37200
N1774       N  0.71106047  0.93257771  0.70055025    -0.37200
C1775       C  0.57902750  0.93260175  0.69008027    -0.03900
C1776       C  0.56453847  0.88439586  0.69382336    -0.01000
C1777       C  0.58848779  0.86496333  0.68008616     0.04000
C1778       C  0.62654720  0.89317845  0.66163855    -0.03900
C1779       C  0.64409464  0.94274688  0.66067359    -0.01000
C1780       C  0.61934029  0.96188719  0.67375695     0.04000
C1781       C  0.52402881  0.85423808  0.71148512     0.38600
C1782       C  0.69197357  0.97555526  0.65169298     0.38600
C1783       C  0.63736124  0.51255574  0.67197987     0.37000
C1784       C  0.57406826  0.81628431  0.68634601     0.37000
N1785       N  0.65177866  0.55293395  0.67059664    -0.37800
N1786       N  0.56047155  0.77764761  0.69339284    -0.37800
N1787       N  0.73111814  0.00357067  0.64711967    -0.37200
N1788       N  0.99182284  0.83025548  0.72558819    -0.37200
C1789       C  0.92483976  0.57888766  0.93444876    -0.03900
C1790       C  0.95283460  0.62345474  0.92149126    -0.01000
C1791       C  0.93158370  0.64323142  0.90495448     0.04000
C1792       C  0.88173049  0.61990517  0.90252873    -0.03900
C1793       C  0.85439039  0.57358308  0.91402432    -0.01000
C1794       C  0.87574669  0.55354068  0.93012969     0.04000
C1795       C  0.00355837  0.64970024  0.92588485     0.38600
C1796       C  0.80442466  0.54463979  0.90869774     0.38600
C1797       C  0.84718193  0.50621684  0.94205535     0.37000
C1798       C  0.96194148  0.68713302  0.89017859     0.37000
N1799       N  0.82453983  0.96848652  0.95150756    -0.37800
N1800       N  0.98862455  0.72145636  0.87840818    -0.37800
N1801       N  0.76434771  0.51887941  0.90577361    -0.37200
N1802       N  0.54396811  0.67100458  0.92955087    -0.37200
C1803       C  0.87177679  0.75900294  0.90984048    -0.03900
C1804       C  0.86031719  0.79457916  0.90486479    -0.01000
C1805       C  0.88509160  0.83904001  0.91864261     0.04000
C1806       C  0.91897946  0.84755391  0.93945975    -0.03900
C1807       C  0.92792273  0.81108144  0.94620499    -0.01000
C1808       C  0.90400935  0.76696262  0.93203178     0.04000
C1809       C  0.82127986  0.78541602  0.88678837     0.38600
C1810       C  0.96420714  0.81998352  0.96672328     0.38600
C1811       C  0.91410217  0.73085187  0.94064391     0.37000
C1812       C  0.87506054  0.87593441  0.91152040     0.37000
N1813       N  0.92239460  0.70294760  0.94914621    -0.37800
N1814       N  0.86730975  0.90541178  0.90558655    -0.37800
N1815       N  0.99336536  0.82721203  0.98289150    -0.37200
N1816       N  0.79055614  0.78057188  0.87271861    -0.37200
C1817       C  0.73893266  0.62253561  0.90932233    -0.03900
C1818       C  0.70273218  0.63201225  0.90220402    -0.01000
C1819       C  0.65908980  0.60924634  0.91660693     0.04000
C1820       C  0.65175252  0.57905450  0.93954611    -0.03900
C1821       C  0.68874522  0.57261307  0.94833742    -0.01000
C1822       C  0.73283336  0.59633254  0.93455778     0.04000
C1823       C  0.70902970  0.66455861  0.87979492     0.38600
C1824       C  0.68036334  0.53837396  0.97035707     0.38600
C1825       C  0.77112123  0.59453797  0.94807041     0.37000
C1826       C  0.62126753  0.61626990  0.90731447     0.37000
N1827       N  0.80064037  0.59348658  0.96058402    -0.37800
N1828       N  0.59091990  0.62126036  0.89955143    -0.37800
N1829       N  0.67362185  0.01038282  0.98739946    -0.37200
N1830       N  0.71080630  0.68928016  0.86191916    -0.37200
C1831       C  0.92036829  0.58045164  0.80988928    -0.03900
C1832       C  0.94127563  0.63062418  0.80998776    -0.01000
C1833       C  0.91942756  0.65175804  0.82432045     0.04000
C1834       C  0.87713512  0.62347563  0.83926250    -0.03900
C1835       C  0.85317032  0.57377847  0.83589907    -0.01000
C1836       C  0.87548316  0.55218606  0.82273204     0.04000
C1837       C  0.98449298  0.66103779  0.79451523     0.38600
C1838       C  0.80331244  0.54515270  0.84227424     0.38600
C1839       C  0.85186626  0.50070923  0.82295996     0.37000
C1840       C  0.93907360  0.70243892  0.82176874     0.37000
N1841       N  0.83286508  0.45966112  0.82325360    -0.37800
N1842       N  0.95575476  0.74286753  0.81850593    -0.37800
N1843       N  0.76300453  0.52136114  0.84570080    -0.37200
N1844       N  0.51893990  0.68545783  0.78222835    -0.37200
C1845       C  0.87521141  0.76330794  0.84425054    -0.03900
C1846       C  0.84901245  0.76932304  0.82261242    -0.01000
C1847       C  0.86889284  0.81185231  0.80669028     0.04000
C1848       C  0.91568886  0.84917236  0.81163345    -0.03900
C1849       C  0.94205799  0.84356224  0.83305295    -0.01000
C1850       C  0.92229820  0.80127383  0.84909637     0.04000
C1851       C  0.80051162  0.73312253  0.81689513     0.38600
C1852       C  0.98992251  0.88179604  0.83909635     0.38600
C1853       C  0.95222977  0.79787210  0.87003862     0.37000
C1854       C  0.84104690  0.81654864  0.78466391     0.37000
N1855       N  0.97821529  0.79876491  0.88666863    -0.37800
N1856       N  0.81866325  0.82020751  0.76722806    -0.37800
N1857       N  0.52821817  0.91178518  0.84393639    -0.37200
N1858       N  0.76167223  0.70643016  0.81092858    -0.37200
C1859       C  0.73550468  0.60342287  0.84203384    -0.03900
C1860       C  0.69074844  0.56952726  0.85359960    -0.01000
C1861       C  0.64870842  0.55819716  0.83946903     0.04000
C1862       C  0.65031364  0.57161576  0.81135146    -0.03900
C1863       C  0.69382470  0.59347196  0.79719028    -0.01000
C1864       C  0.73594437  0.60666473  0.81208948     0.04000
C1865       C  0.68624131  0.53794343  0.87615435     0.38600
C1866       C  0.69497530  0.60051667  0.76700695     0.38600
C1867       C  0.77576963  0.61356665  0.79568962     0.37000
C1868       C  0.60366353  0.53210200  0.85388963     0.37000
N1869       N  0.80669281  0.61812900  0.78197572    -0.37800
N1870       N  0.56788215  0.51200298  0.86556048    -0.37800
N1871       N  0.69579174  0.60599125  0.74295870    -0.37200
N1872       N  0.67858793  0.51016983  0.89350931    -0.37200
loop_ 
_geom_bond_atom_site_label_1 
_geom_bond_atom_site_label_2 
_geom_bond_distance 
_geom_bond_site_symmetry_2 
_ccdc_geom_bond_type 
C1            H2   1.090       .  S
C1            C7   1.526       .  S
C1            C6   1.572       .  S
C1            C5   1.558       .  S
C3            H4   1.095       .  S
C3            C9   1.551       .  S
C3            C8   1.542       .  S
C3           C10   1.564       .  S
C5            C8   1.381       .  D
C5          C207   1.524       .  S
C6            C9   1.406       .  D
C6          C221   1.553       .  S
C7           C10   1.369       .  D
C7          C196   1.502       .  S
C8          C165   1.527       .  S
C9          C179   1.527       .  S
C10         C154   1.512       .  S
C11          H12   1.104       .  S
C11          C17   1.539       .  S
C11          C16   1.552       .  S
C11          C15   1.563       .  S
C13          H14   1.104       .  S
C13          C19   1.555       .  S
C13          C18   1.539       .  S
C13          C20   1.562       .  S
C15          C18   1.398       .  D
C15         C123   1.526       .  S
C16          C19   1.390       .  D
C16         C112   1.522       .  S
C17          C20   1.370       .  D
C17         C140   1.517       .  S
C18          C81   1.519       .  S
C19          C70   1.529       .  S
C20          C95   1.510       .  S
O21          C37   1.276       .  A
O21        Zn495   2.030       .  S
C22          O38   1.276       .  A
C22          O35   1.273       .  A
C22          C67   1.496       .  S
O23          C36   1.276       .  A
O23         Cd30   2.081       .  S
O24          C42   1.274       .  A
O24        Cd267   2.056       .  S
O25          C39   1.277       .  A
O25        Cd965   2.088   1_455  S
O26          C37   1.274       .  A
O26         Cd29   2.062       .  S
Zn27        O489   2.030   1_545  S
Zn27        O974   2.045       .  S
Zn27        O274   2.028   1_554  S
Zn27         O32   1.956   1_554  S
O28          C39   1.273       .  A
O28        Cd501   2.067       .  S
Cd29        O961   2.088       .  S
Cd29        O265   2.070   1_554  S
Cd29        O500   2.000   1_554  S
Cd30        O502   2.098   1_545  S
Cd30        O979   2.082       .  S
Cd30        O266   2.015       .  S
O31          C41   1.275       .  A
O31        Cd263   2.070       .  S
O32        Cd497   2.000   1_546  S
O32        Cd264   2.015       .  S
O32        Cd969   1.989   1_556  S
Cd33         O35   2.060       .  S
Cd33        O258   2.056   1_554  S
Cd33        O496   2.067   1_545  S
Cd33        O968   1.989   1_454  S
O34          C41   1.278       .  A
O34        Cd498   2.098       .  S
C36          O40   1.275       .  A
C36         C151   1.483       .  S
C37          C84   1.508       .  S
O38        Zn963   2.045   1_455  S
C39          C98   1.510       .  S
O40        Zn261   2.028       .  S
C41         C168   1.497       .  S
C42          O43   1.277       .  A
C42         C182   1.487       .  S
O43        Cd966   2.082   1_455  S
O44          C60   1.273       .  A
O44        Zn518   2.009   1_545  S
C45          O61   1.274       .  A
C45          O58   1.277       .  A
C45         C210   1.499       .  S
O46          C59   1.276       .  A
O46       Cd1457   2.083       .  S
O47          C65   1.275       .  A
O47         Cd56   2.059       .  S
O48          C62   1.276       .  A
O48        Cd988   2.077       .  S
O49          C60   1.274       .  A
O49         Cd52   2.074       .  S
Zn50         O63   2.005       .  S
Zn50        O512   2.009       .  S
Zn50        O997   2.014   1_455  S
Zn50       O1459   1.933   1_455  S
O51          C62   1.275       .  A
O51        Cd524   2.072   1_545  S
Cd52         O54   2.063       .  S
Cd52        O984   2.077   1_455  S
Cd52        O991   2.003   1_455  S
Cd53       O1450   2.083   1_545  S
Cd53        O993   2.071       .  S
Cd53        O534   2.081   1_545  S
Cd53         O55   2.013       .  S
O54          C64   1.274       .  A
O55       Zn1454   1.933   1_545  S
O55        Cd988   2.003       .  S
O55        Cd524   1.993   1_545  S
Cd56         O58   2.086       .  S
Cd56        O519   2.072       .  S
Cd56        O523   1.993       .  S
O57          C64   1.275       .  A
O57        Cd989   2.071       .  S
C59          O63   1.273       .  A
C59         C137   1.486       .  S
C60         C224   1.477       .  S
O61        Zn986   2.014       .  S
C62         C193   1.504       .  S
C64         C109   1.485       .  S
C65          O66   1.275       .  A
C65         C126   1.485       .  S
O66        Cd521   2.081       .  S
C67          C68   1.410       .  A
C67          C72   1.410       .  A
C68          C69   1.413       .  A
C68          C73   1.456       .  S
C69          C70   1.428       .  A
C69          C76   1.448       .  S
C70          C71   1.426       .  A
C71          C72   1.418       .  A
C71          C74   1.448       .  S
C72          C75   1.453       .  S
C73          N80   1.158       .  T
C74          N79   1.157       .  T
C75          N77   1.158       .  T
C76          N78   1.156       .  T
C81          C82   1.401       .  A
C81          C86   1.407       .  A
C82          C83   1.411       .  A
C82          C87   1.445       .  S
C83          C84   1.426       .  A
C83          C90   1.450       .  S
C84          C85   1.425       .  A
C85          C86   1.412       .  A
C85          C88   1.451       .  S
C86          C89   1.447       .  S
C87          N94   1.156       .  T
C88         N561   1.158       .  T
C89          N91   1.158       .  T
C90          N92   1.157       .  T
N93         C556   1.158   1_545  T
C95          C96   1.415       .  A
C95         C100   1.415       .  A
C96          C97   1.415       .  A
C96         C101   1.447       .  S
C97          C98   1.418       .  A
C97        C1040   1.451   1_455  S
C98          C99   1.421       .  A
C99         C100   1.414       .  A
C99         C102   1.453       .  S
C100        C103   1.448       .  S
C101        N108   1.156       .  T
C102        N575   1.158       .  T
C103        N105   1.158       .  T
C104       C1033   1.451       .  S
C104        N106   1.157       .  T
N107        C570   1.158       .  T
C109        C110   1.408       .  A
C109        C114   1.408       .  A
C110        C111   1.412       .  A
C110       C1051   1.454       .  S
C111        C112   1.426       .  A
C111        C118   1.449       .  S
C112        C113   1.428       .  A
C113        C114   1.413       .  A
C113        C116   1.449       .  S
C114        C117   1.455       .  S
C115       C1046   1.454       .  S
C115        N122   1.157       .  T
C116        N121   1.157       .  T
C117        N119   1.157       .  T
C118        N120   1.157       .  T
C123        C124   1.426       .  A
C123        C128   1.424       .  A
C124        C125   1.411       .  A
C124        C129   1.444       .  S
C125        C126   1.406       .  A
C125        C132   1.456       .  S
C126        C127   1.404       .  A
C127        C128   1.416       .  A
C127        C130   1.454       .  S
C128        C131   1.442       .  S
C129        N136   1.157       .  T
C130        N135   1.157       .  T
C131        N133   1.156       .  T
C132        N602   1.157       .  T
N134        C600   1.157   1_545  T
C137        C138   1.410       .  A
C137        C142   1.408       .  A
C138        C139   1.413       .  A
C138        C143   1.454       .  S
C139        C140   1.418       .  A
C139        C146   1.444       .  S
C140        C141   1.420       .  A
C141        C142   1.413       .  A
C141        C144   1.445       .  S
C142        C613   1.453       .  S
C143       N1086   1.157   1_455  T
C144        N149   1.157       .  T
C145        C610   1.453   1_545  S
C145        N147   1.157       .  T
C146        N148   1.156       .  T
N150       C1079   1.157       .  T
C151        C152   1.407       .  A
C151        C156   1.405       .  A
C152        C153   1.415       .  A
C152        C157   1.451       .  S
C153        C154   1.419       .  A
C153        C160   1.444       .  S
C154        C155   1.418       .  A
C155        C156   1.413       .  A
C155        C158   1.440       .  S
C156        C159   1.453       .  S
C157       N1100   1.157       .  T
C158        N163   1.154       .  T
C159        N629   1.157   1_545  T
C160        N162   1.155       .  T
N161        C627   1.157       .  T
N164       C1093   1.157       .  T
C165        C166   1.423       .  A
C165        C170   1.425       .  A
C166        C167   1.417       .  A
C166        C171   1.446       .  S
C167        C168   1.410       .  A
C167        C174   1.453       .  S
C168        C169   1.412       .  A
C169        C170   1.416       .  A
C169        C172   1.454       .  S
C170        C173   1.448       .  S
C171        N178   1.156       .  T
C172        N177   1.157       .  T
C173        N175   1.157       .  T
C174        N176   1.158       .  T
C179        C180   1.424       .  A
C179        C184   1.429       .  A
C180        C181   1.414       .  A
C180        C185   1.446       .  S
C181        C182   1.408       .  A
C181        C188   1.452       .  S
C182        C183   1.408       .  A
C183        C184   1.411       .  A
C183        C186   1.454       .  S
C184        C187   1.447       .  S
C185        N192   1.155       .  T
C186        N659   1.157       .  T
C187        N189   1.158       .  T
C188        N190   1.157       .  T
N191        C654   1.157       .  T
C193        C194   1.422       .  A
C193        C198   1.420       .  A
C194        C195   1.414       .  A
C194        C199   1.452       .  S
C195        C196   1.409       .  A
C195        C202   1.447       .  S
C196        C197   1.410       .  A
C197        C198   1.412       .  A
C197        C200   1.447       .  S
C198        C201   1.452       .  S
C199       N1142   1.158       .  T
C200        N205   1.157       .  T
C201        N203   1.158   1_545  T
C202        N204   1.156       .  T
N206       C1135   1.158   1_455  T
C207        C208   1.422       .  A
C207        C212   1.424       .  A
C208        C209   1.417       .  A
C208        C213   1.446       .  S
C209        C210   1.412       .  A
C209        C216   1.454       .  S
C210        C211   1.413       .  A
C211        C212   1.414       .  A
C211        C214   1.453       .  S
C212        C215   1.448       .  S
C213        N220   1.155       .  T
C214       N1155   1.157       .  T
C215        N217   1.156       .  T
C216        N218   1.158       .  T
N219       C1150   1.157   1_455  T
C221        C222   1.425       .  A
C221        C226   1.430       .  A
C222        C223   1.409       .  A
C222        C227   1.445       .  S
C223        C224   1.401       .  A
C223        C230   1.452       .  S
C224        C225   1.406       .  A
C225        C226   1.416       .  A
C225        C228   1.453       .  S
C226        C229   1.447       .  S
C227        N234   1.157       .  T
C228        N233   1.157       .  T
C229        N231   1.158       .  T
C230        N232   1.157       .  T
C235        H236   1.090       .  S
C235        C241   1.526       .  S
C235        C240   1.572       .  S
C235        C239   1.558       .  S
C237        H238   1.095       .  S
C237        C243   1.551       .  S
C237        C242   1.542       .  S
C237        C244   1.564       .  S
C239        C242   1.381       .  D
C239        C441   1.524       .  S
C240        C243   1.406       .  D
C240        C455   1.553       .  S
C241        C244   1.369       .  D
C241        C430   1.502       .  S
C242        C399   1.527       .  S
C243        C413   1.527       .  S
C244        C388   1.512       .  S
C245        H246   1.104       .  S
C245        C251   1.539       .  S
C245        C250   1.552       .  S
C245        C249   1.563       .  S
C247        H248   1.104       .  S
C247        C253   1.555       .  S
C247        C252   1.539       .  S
C247        C254   1.562       .  S
C249        C252   1.398       .  D
C249        C357   1.526       .  S
C250        C253   1.390       .  D
C250        C346   1.522       .  S
C251        C254   1.370       .  D
C251        C374   1.517       .  S
C252        C315   1.519       .  S
C253        C304   1.529       .  S
C254        C329   1.510       .  S
O255        C271   1.276       .  A
O255       Zn729   2.030       .  S
C256        O272   1.276       .  A
C256        O269   1.273       .  A
C256        C301   1.496       .  S
O257        C270   1.276       .  A
O257       Cd264   2.081       .  S
O258        C276   1.274       .  A
O259        C273   1.277       .  A
O259      Cd1199   2.088   1_455  S
O260        C271   1.274       .  A
O260       Cd263   2.062       .  S
Zn261       O723   2.030   1_545  S
Zn261      O1208   2.045       .  S
Zn261       O266   1.956       .  S
O262        C273   1.273       .  A
O262       Cd735   2.067       .  S
Cd263      O1195   2.088       .  S
Cd263       O734   2.000       .  S
Cd264       O736   2.098   1_545  S
Cd264      O1213   2.082       .  S
O265        C275   1.275       .  A
O266       Cd731   2.000   1_545  S
O266      Cd1203   1.989       .  S
Cd267       O730   2.067   1_545  S
Cd267       O269   2.060       .  S
Cd267      O1202   1.989   1_455  S
O268        C275   1.278       .  A
O268       Cd732   2.098       .  S
C270        O274   1.275       .  A
C270        C385   1.483       .  S
C271        C318   1.508       .  S
O272      Zn1197   2.045   1_455  S
C273        C332   1.510       .  S
C275        C402   1.497       .  S
C276        O277   1.277       .  A
C276        C416   1.487       .  S
O277      Cd1200   2.082   1_455  S
O278        C294   1.273       .  A
O278       Zn752   2.009   1_545  S
C279        O295   1.274       .  A
C279        O292   1.277       .  A
C279        C444   1.499       .  S
O280        C293   1.276       .  A
O280      Cd1691   2.083       .  S
O281        C299   1.275       .  A
O281       Cd290   2.059       .  S
O282        C296   1.276       .  A
O282      Cd1222   2.077       .  S
O283        C294   1.274       .  A
O283       Cd286   2.074       .  S
Zn284       O746   2.009       .  S
Zn284      O1231   2.014   1_455  S
Zn284       O297   2.005       .  S
Zn284      O1693   1.933   1_455  S
O285        C296   1.275       .  A
O285       Cd758   2.072   1_545  S
Cd286      O1218   2.077   1_455  S
Cd286       O288   2.063       .  S
Cd286      O1225   2.003   1_455  S
Cd287      O1684   2.083   1_545  S
Cd287      O1227   2.071       .  S
Cd287       O768   2.081   1_545  S
Cd287       O289   2.013       .  S
O288        C298   1.274       .  A
O289      Zn1688   1.933   1_545  S
O289      Cd1222   2.003       .  S
O289       Cd758   1.993   1_545  S
Cd290       O753   2.072       .  S
Cd290       O292   2.086       .  S
Cd290       O757   1.993       .  S
O291        C298   1.275       .  A
O291      Cd1223   2.071       .  S
C293        O297   1.273       .  A
C293        C371   1.486       .  S
C294        C458   1.477       .  S
O295      Zn1220   2.014       .  S
C296        C427   1.504       .  S
C298        C343   1.485       .  S
C299        O300   1.275       .  A
C299        C360   1.485       .  S
O300       Cd755   2.081       .  S
C301        C302   1.410       .  A
C301        C306   1.410       .  A
C302        C303   1.413       .  A
C302        C307   1.456       .  S
C303        C304   1.428       .  A
C303        C310   1.448       .  S
C304        C305   1.426       .  A
C305        C306   1.418       .  A
C305        C308   1.448       .  S
C306        C309   1.453       .  S
C307        N314   1.158       .  T
C308        N313   1.157       .  T
C309        N311   1.158       .  T
C310        N312   1.156       .  T
C315        C316   1.401       .  A
C315        C320   1.407       .  A
C316        C317   1.411       .  A
C316        C321   1.445       .  S
C317        C318   1.426       .  A
C317        C324   1.450       .  S
C318        C319   1.425       .  A
C319        C320   1.412       .  A
C319        C322   1.451       .  S
C320        C323   1.447       .  S
C321        N328   1.156       .  T
C322        N795   1.158       .  T
C323        N325   1.158       .  T
C324        N326   1.157       .  T
N327        C790   1.158   1_545  T
C329        C330   1.415       .  A
C329        C334   1.415       .  A
C330        C331   1.415       .  A
C330        C335   1.447       .  S
C331        C332   1.418       .  A
C331       C1274   1.451   1_455  S
C332        C333   1.421       .  A
C333        C334   1.414       .  A
C333        C336   1.453       .  S
C334        C337   1.448       .  S
C335        N342   1.156       .  T
C336        N809   1.158       .  T
C337        N339   1.158       .  T
C338       C1267   1.451       .  S
C338        N340   1.157       .  T
N341        C804   1.158       .  T
C343        C344   1.408       .  A
C343        C348   1.408       .  A
C344        C345   1.412       .  A
C344       C1285   1.454       .  S
C345        C346   1.426       .  A
C345        C352   1.449       .  S
C346        C347   1.428       .  A
C347        C348   1.413       .  A
C347        C350   1.449       .  S
C348        C351   1.455       .  S
C349       C1280   1.454       .  S
C349        N356   1.157       .  T
C350        N355   1.157       .  T
C351        N353   1.157       .  T
C352        N354   1.157       .  T
C357        C358   1.426       .  A
C357        C362   1.424       .  A
C358        C359   1.411       .  A
C358        C363   1.444       .  S
C359        C360   1.406       .  A
C359        C366   1.456       .  S
C360        C361   1.404       .  A
C361        C362   1.416       .  A
C361        C364   1.454       .  S
C362        C365   1.442       .  S
C363        N370   1.157       .  T
C364        N369   1.157       .  T
C365        N367   1.156       .  T
C366        N836   1.157       .  T
N368        C834   1.157   1_545  T
C371        C372   1.410       .  A
C371        C376   1.408       .  A
C372        C373   1.413       .  A
C372        C377   1.454       .  S
C373        C374   1.418       .  A
C373        C380   1.444       .  S
C374        C375   1.420       .  A
C375        C376   1.413       .  A
C375        C378   1.445       .  S
C376        C847   1.453       .  S
C377       N1320   1.157   1_455  T
C378        N383   1.157       .  T
C379        C844   1.453   1_545  S
C379        N381   1.157       .  T
C380        N382   1.156       .  T
N384       C1313   1.157       .  T
C385        C386   1.407       .  A
C385        C390   1.405       .  A
C386        C387   1.415       .  A
C386        C391   1.451       .  S
C387        C388   1.419       .  A
C387        C394   1.444       .  S
C388        C389   1.418       .  A
C389        C390   1.413       .  A
C389        C392   1.440       .  S
C390        C393   1.453       .  S
C391       N1334   1.157       .  T
C392        N397   1.154       .  T
C393        N863   1.157   1_545  T
C394        N396   1.155       .  T
N395        C861   1.157       .  T
N398       C1327   1.157       .  T
C399        C400   1.423       .  A
C399        C404   1.425       .  A
C400        C401   1.417       .  A
C400        C405   1.446       .  S
C401        C402   1.410       .  A
C401        C408   1.453       .  S
C402        C403   1.412       .  A
C403        C404   1.416       .  A
C403        C406   1.454       .  S
C404        C407   1.448       .  S
C405        N412   1.156       .  T
C406        N411   1.157       .  T
C407        N409   1.157       .  T
C408        N410   1.158       .  T
C413        C414   1.424       .  A
C413        C418   1.429       .  A
C414        C415   1.414       .  A
C414        C419   1.446       .  S
C415        C416   1.408       .  A
C415        C422   1.452       .  S
C416        C417   1.408       .  A
C417        C418   1.411       .  A
C417        C420   1.454       .  S
C418        C421   1.447       .  S
C419        N426   1.155       .  T
C420        N893   1.157       .  T
C421        N423   1.158       .  T
C422        N424   1.157       .  T
N425        C888   1.157       .  T
C427        C428   1.422       .  A
C427        C432   1.420       .  A
C428        C429   1.414       .  A
C428        C433   1.452       .  S
C429        C430   1.409       .  A
C429        C436   1.447       .  S
C430        C431   1.410       .  A
C431        C432   1.412       .  A
C431        C434   1.447       .  S
C432        C435   1.452       .  S
C433       N1376   1.158       .  T
C434        N439   1.157       .  T
C435        N437   1.158   1_545  T
C436        N438   1.156       .  T
N440       C1369   1.158   1_455  T
C441        C442   1.422       .  A
C441        C446   1.424       .  A
C442        C443   1.417       .  A
C442        C447   1.446       .  S
C443        C444   1.412       .  A
C443        C450   1.454       .  S
C444        C445   1.413       .  A
C445        C446   1.414       .  A
C445        C448   1.453       .  S
C446        C449   1.448       .  S
C447        N454   1.155       .  T
C448       N1389   1.157       .  T
C449        N451   1.156       .  T
C450        N452   1.158       .  T
N453       C1384   1.157   1_455  T
C455        C456   1.425       .  A
C455        C460   1.430       .  A
C456        C457   1.409       .  A
C456        C461   1.445       .  S
C457        C458   1.401       .  A
C457        C464   1.452       .  S
C458        C459   1.406       .  A
C459        C460   1.416       .  A
C459        C462   1.453       .  S
C460        C463   1.447       .  S
C461        N468   1.157       .  T
C462        N467   1.157       .  T
C463        N465   1.158       .  T
C464        N466   1.157       .  T
C469        H470   1.090       .  S
C469        C475   1.526       .  S
C469        C474   1.572       .  S
C469        C473   1.558       .  S
C471        H472   1.095       .  S
C471        C477   1.551       .  S
C471        C476   1.542       .  S
C471        C478   1.564       .  S
C473        C476   1.381       .  D
C473        C675   1.524       .  S
C474        C477   1.406       .  D
C474        C689   1.553       .  S
C475        C478   1.369       .  D
C475        C664   1.502       .  S
C476        C633   1.527       .  S
C477        C647   1.527       .  S
C478        C622   1.512       .  S
C479        H480   1.104       .  S
C479        C485   1.539       .  S
C479        C484   1.552       .  S
C479        C483   1.563       .  S
C481        H482   1.104       .  S
C481        C487   1.555       .  S
C481        C486   1.539       .  S
C481        C488   1.562       .  S
C483        C486   1.398       .  D
C483        C591   1.526       .  S
C484        C487   1.390       .  D
C484        C580   1.522       .  S
C485        C488   1.370       .  D
C485        C608   1.517       .  S
C486        C549   1.519       .  S
C487        C538   1.529       .  S
C488        C563   1.510       .  S
O489        C505   1.276       .  A
C490        O506   1.276       .  A
C490        O503   1.273       .  A
C490        C535   1.496       .  S
O491        C504   1.276       .  A
O491       Cd498   2.081       .  S
O492        C510   1.274       .  A
O492       Cd735   2.056       .  S
O493        C507   1.277       .  A
O493      Cd1433   2.088   1_455  S
O494        C505   1.274       .  A
O494       Cd497   2.062       .  S
Zn495      O1442   2.045       .  S
Zn495       O742   2.028   1_554  S
Zn495       O500   1.956   1_554  S
O496        C507   1.273       .  A
Cd497      O1429   2.088       .  S
Cd497       O733   2.070   1_554  S
Cd498      O1447   2.082       .  S
Cd498       O734   2.015       .  S
O499        C509   1.275       .  A
O499       Cd731   2.070       .  S
O500       Cd732   2.015       .  S
O500      Cd1437   1.989   1_556  S
Cd501       O726   2.056   1_554  S
Cd501       O503   2.060       .  S
Cd501      O1436   1.989   1_454  S
O502        C509   1.278       .  A
C504        O508   1.275       .  A
C504        C619   1.483       .  S
C505        C552   1.508       .  S
O506      Zn1431   2.045   1_455  S
C507        C566   1.510       .  S
O508       Zn729   2.028       .  S
C509        C636   1.497       .  S
C510        O511   1.277       .  A
C510        C650   1.487       .  S
O511      Cd1434   2.082   1_455  S
O512        C528   1.273       .  A
C513        O529   1.274       .  A
C513        O526   1.277       .  A
C513        C678   1.499       .  S
O514        C527   1.276       .  A
O514       Cd989   2.083   1_565  S
O515        C533   1.275       .  A
O515       Cd524   2.059       .  S
O516        C530   1.276       .  A
O516      Cd1456   2.077       .  S
O517        C528   1.274       .  A
O517       Cd520   2.074       .  S
Zn518      O1465   2.014   1_455  S
Zn518       O531   2.005       .  S
Zn518       O991   1.933   1_465  S
O519        C530   1.275       .  A
Cd520      O1452   2.077   1_455  S
Cd520       O522   2.063       .  S
Cd520      O1459   2.003   1_455  S
Cd521       O982   2.083       .  S
Cd521      O1461   2.071       .  S
Cd521       O523   2.013       .  S
O522        C532   1.274       .  A
O523       Zn986   1.933       .  S
O523      Cd1456   2.003       .  S
Cd524       O526   2.086       .  S
O525        C532   1.275       .  A
O525      Cd1457   2.071       .  S
C527        O531   1.273       .  A
C527        C605   1.486       .  S
C528        C692   1.477       .  S
O529      Zn1454   2.014       .  S
C530        C661   1.504       .  S
C532        C577   1.485       .  S
C533        O534   1.275       .  A
C533        C594   1.485       .  S
C535        C536   1.410       .  A
C535        C540   1.410       .  A
C536        C537   1.413       .  A
C536        C541   1.456       .  S
C537        C538   1.428       .  A
C537        C544   1.448       .  S
C538        C539   1.426       .  A
C539        C540   1.418       .  A
C539        C542   1.448       .  S
C540        C543   1.453       .  S
C541        N548   1.158       .  T
C542        N547   1.157       .  T
C543        N545   1.158       .  T
C544        N546   1.156       .  T
C549        C550   1.401       .  A
C549        C554   1.407       .  A
C550        C551   1.411       .  A
C550        C555   1.445       .  S
C551        C552   1.426       .  A
C551        C558   1.450       .  S
C552        C553   1.425       .  A
C553        C554   1.412       .  A
C553        C556   1.451       .  S
C554        C557   1.447       .  S
C555        N562   1.156       .  T
C557        N559   1.158       .  T
C558        N560   1.157       .  T
C563        C564   1.415       .  A
C563        C568   1.415       .  A
C564        C565   1.415       .  A
C564        C569   1.447       .  S
C565        C566   1.418       .  A
C565       C1508   1.451   1_455  S
C566        C567   1.421       .  A
C567        C568   1.414       .  A
C567        C570   1.453   1_565  S
C568        C571   1.448       .  S
C569        N576   1.156       .  T
C571        N573   1.158       .  T
C572       C1501   1.451       .  S
C572        N574   1.157       .  T
C577        C578   1.408       .  A
C577        C582   1.408       .  A
C578        C579   1.412       .  A
C578       C1519   1.454       .  S
C579        C580   1.426       .  A
C579        C586   1.449       .  S
C580        C581   1.428       .  A
C581        C582   1.413       .  A
C581        C584   1.449       .  S
C582        C585   1.455       .  S
C583       C1514   1.454       .  S
C583        N590   1.157       .  T
C584        N589   1.157       .  T
C585        N587   1.157       .  T
C586        N588   1.157       .  T
C591        C592   1.426       .  A
C591        C596   1.424       .  A
C592        C593   1.411       .  A
C592        C597   1.444       .  S
C593        C594   1.406       .  A
C593        C600   1.456       .  S
C594        C595   1.404       .  A
C595        C596   1.416       .  A
C595        C598   1.454       .  S
C596        C599   1.442       .  S
C597        N604   1.157       .  T
C598        N603   1.157       .  T
C599        N601   1.156       .  T
C605        C606   1.410       .  A
C605        C610   1.408       .  A
C606        C607   1.413       .  A
C606        C611   1.454       .  S
C607        C608   1.418       .  A
C607        C614   1.444       .  S
C608        C609   1.420       .  A
C609        C610   1.413       .  A
C609        C612   1.445       .  S
C611       N1554   1.157   1_455  T
C612        N617   1.157   1_565  T
C613        N615   1.157       .  T
C614        N616   1.156       .  T
N618       C1547   1.157       .  T
C619        C620   1.407       .  A
C619        C624   1.405       .  A
C620        C621   1.415       .  A
C620        C625   1.451       .  S
C621        C622   1.419       .  A
C621        C628   1.444       .  S
C622        C623   1.418       .  A
C623        C624   1.413       .  A
C623        C626   1.440       .  S
C624        C627   1.453       .  S
C625       N1568   1.157       .  T
C626        N631   1.154       .  T
C628        N630   1.155       .  T
N632       C1561   1.157       .  T
C633        C634   1.423       .  A
C633        C638   1.425       .  A
C634        C635   1.417       .  A
C634        C639   1.446       .  S
C635        C636   1.410       .  A
C635        C642   1.453       .  S
C636        C637   1.412       .  A
C637        C638   1.416       .  A
C637        C640   1.454       .  S
C638        C641   1.448       .  S
C639        N646   1.156       .  T
C640        N645   1.157       .  T
C641        N643   1.157       .  T
C642        N644   1.158       .  T
C647        C648   1.424       .  A
C647        C652   1.429       .  A
C648        C649   1.414       .  A
C648        C653   1.446       .  S
C649        C650   1.408       .  A
C649        C656   1.452       .  S
C650        C651   1.408       .  A
C651        C652   1.411       .  A
C651        C654   1.454       .  S
C652        C655   1.447       .  S
C653        N660   1.155       .  T
C655        N657   1.158       .  T
C656        N658   1.157       .  T
C661        C662   1.422       .  A
C661        C666   1.420       .  A
C662        C663   1.414       .  A
C662        C667   1.452       .  S
C663        C664   1.409       .  A
C663        C670   1.447       .  S
C664        C665   1.410       .  A
C665        C666   1.412       .  A
C665        C668   1.447       .  S
C666        C669   1.452       .  S
C667       N1610   1.158       .  T
C668        N673   1.157       .  T
C669        N671   1.158       .  T
C670        N672   1.156       .  T
N674       C1603   1.158   1_455  T
C675        C676   1.422       .  A
C675        C680   1.424       .  A
C676        C677   1.417       .  A
C676        C681   1.446       .  S
C677        C678   1.412       .  A
C677        C684   1.454       .  S
C678        C679   1.413       .  A
C679        C680   1.414       .  A
C679        C682   1.453       .  S
C680        C683   1.448       .  S
C681        N688   1.155       .  T
C682       N1623   1.157       .  T
C683        N685   1.156       .  T
C684        N686   1.158       .  T
N687       C1618   1.157   1_455  T
C689        C690   1.425       .  A
C689        C694   1.430       .  A
C690        C691   1.409       .  A
C690        C695   1.445       .  S
C691        C692   1.401       .  A
C691        C698   1.452       .  S
C692        C693   1.406       .  A
C693        C694   1.416       .  A
C693        C696   1.453       .  S
C694        C697   1.447       .  S
C695        N702   1.157       .  T
C696        N701   1.157       .  T
C697        N699   1.158       .  T
C698        N700   1.157       .  T
C703        H704   1.090       .  S
C703        C709   1.526       .  S
C703        C708   1.572       .  S
C703        C707   1.558       .  S
C705        H706   1.095       .  S
C705        C711   1.551       .  S
C705        C710   1.542       .  S
C705        C712   1.564       .  S
C707        C710   1.381       .  D
C707        C909   1.524       .  S
C708        C711   1.406       .  D
C708        C923   1.553       .  S
C709        C712   1.369       .  D
C709        C898   1.502       .  S
C710        C867   1.527       .  S
C711        C881   1.527       .  S
C712        C856   1.512       .  S
C713        H714   1.104       .  S
C713        C719   1.539       .  S
C713        C718   1.552       .  S
C713        C717   1.563       .  S
C715        H716   1.104       .  S
C715        C721   1.555       .  S
C715        C720   1.539       .  S
C715        C722   1.562       .  S
C717        C720   1.398       .  D
C717        C825   1.526       .  S
C718        C721   1.390       .  D
C718        C814   1.522       .  S
C719        C722   1.370       .  D
C719        C842   1.517       .  S
C720        C783   1.519       .  S
C721        C772   1.529       .  S
C722        C797   1.510       .  S
O723        C739   1.276       .  A
C724        O740   1.276       .  A
C724        O737   1.273       .  A
C724        C769   1.496       .  S
O725        C738   1.276       .  A
O725       Cd732   2.081       .  S
O726        C744   1.274       .  A
O727        C741   1.277       .  A
O727      Cd1667   2.088   1_455  S
O728        C739   1.274       .  A
O728       Cd731   2.062       .  S
Zn729      O1676   2.045       .  S
Zn729       O734   1.956       .  S
O730        C741   1.273       .  A
Cd731      O1663   2.088       .  S
Cd732      O1681   2.082       .  S
O733        C743   1.275       .  A
O734      Cd1671   1.989       .  S
Cd735       O737   2.060       .  S
Cd735      O1670   1.989   1_455  S
O736        C743   1.278       .  A
C738        O742   1.275       .  A
C738        C853   1.483       .  S
C739        C786   1.508       .  S
O740      Zn1665   2.045   1_455  S
C741        C800   1.510       .  S
C743        C870   1.497       .  S
C744        O745   1.277       .  A
C744        C884   1.487       .  S
O745      Cd1668   2.082   1_455  S
O746        C762   1.273       .  A
C747        O763   1.274       .  A
C747        O760   1.277       .  A
C747        C912   1.499       .  S
O748        C761   1.276       .  A
O748      Cd1223   2.083   1_565  S
O749        C767   1.275       .  A
O749       Cd758   2.059       .  S
O750        C764   1.276       .  A
O750      Cd1690   2.077       .  S
O751        C762   1.274       .  A
O751       Cd754   2.074       .  S
Zn752      O1699   2.014   1_455  S
Zn752       O765   2.005       .  S
Zn752      O1225   1.933   1_465  S
O753        C764   1.275       .  A
Cd754      O1686   2.077   1_455  S
Cd754       O756   2.063       .  S
Cd754      O1693   2.003   1_455  S
Cd755      O1216   2.083       .  S
Cd755      O1695   2.071       .  S
Cd755       O757   2.013       .  S
O756        C766   1.274       .  A
O757      Zn1220   1.933       .  S
O757      Cd1690   2.003       .  S
Cd758       O760   2.086       .  S
O759        C766   1.275       .  A
O759      Cd1691   2.071       .  S
C761        O765   1.273       .  A
C761        C839   1.486       .  S
C762        C926   1.477       .  S
O763      Zn1688   2.014       .  S
C764        C895   1.504       .  S
C766        C811   1.485       .  S
C767        O768   1.275       .  A
C767        C828   1.485       .  S
C769        C770   1.410       .  A
C769        C774   1.410       .  A
C770        C771   1.413       .  A
C770        C775   1.456       .  S
C771        C772   1.428       .  A
C771        C778   1.448       .  S
C772        C773   1.426       .  A
C773        C774   1.418       .  A
C773        C776   1.448       .  S
C774        C777   1.453       .  S
C775        N782   1.158       .  T
C776        N781   1.157       .  T
C777        N779   1.158       .  T
C778        N780   1.156       .  T
C783        C784   1.401       .  A
C783        C788   1.407       .  A
C784        C785   1.411       .  A
C784        C789   1.445       .  S
C785        C786   1.426       .  A
C785        C792   1.450       .  S
C786        C787   1.425       .  A
C787        C788   1.412       .  A
C787        C790   1.451       .  S
C788        C791   1.447       .  S
C789        N796   1.156       .  T
C791        N793   1.158       .  T
C792        N794   1.157       .  T
C797        C798   1.415       .  A
C797        C802   1.415       .  A
C798        C799   1.415       .  A
C798        C803   1.447       .  S
C799        C800   1.418       .  A
C799       C1742   1.451   1_455  S
C800        C801   1.421       .  A
C801        C802   1.414       .  A
C801        C804   1.453   1_565  S
C802        C805   1.448       .  S
C803        N810   1.156       .  T
C805        N807   1.158       .  T
C806       C1735   1.451       .  S
C806        N808   1.157       .  T
C811        C812   1.408       .  A
C811        C816   1.408       .  A
C812        C813   1.412       .  A
C812       C1753   1.454       .  S
C813        C814   1.426       .  A
C813        C820   1.449       .  S
C814        C815   1.428       .  A
C815        C816   1.413       .  A
C815        C818   1.449       .  S
C816        C819   1.455       .  S
C817       C1748   1.454       .  S
C817        N824   1.157       .  T
C818        N823   1.157       .  T
C819        N821   1.157       .  T
C820        N822   1.157       .  T
C825        C826   1.426       .  A
C825        C830   1.424       .  A
C826        C827   1.411       .  A
C826        C831   1.444       .  S
C827        C828   1.406       .  A
C827        C834   1.456       .  S
C828        C829   1.404       .  A
C829        C830   1.416       .  A
C829        C832   1.454       .  S
C830        C833   1.442       .  S
C831        N838   1.157       .  T
C832        N837   1.157       .  T
C833        N835   1.156       .  T
C839        C840   1.410       .  A
C839        C844   1.408       .  A
C840        C841   1.413       .  A
C840        C845   1.454       .  S
C841        C842   1.418       .  A
C841        C848   1.444       .  S
C842        C843   1.420       .  A
C843        C844   1.413       .  A
C843        C846   1.445       .  S
C845       N1788   1.157   1_455  T
C846        N851   1.157   1_565  T
C847        N849   1.157       .  T
C848        N850   1.156       .  T
N852       C1781   1.157       .  T
C853        C854   1.407       .  A
C853        C858   1.405       .  A
C854        C855   1.415       .  A
C854        C859   1.451       .  S
C855        C856   1.419       .  A
C855        C862   1.444       .  S
C856        C857   1.418       .  A
C857        C858   1.413       .  A
C857        C860   1.440       .  S
C858        C861   1.453       .  S
C859       N1802   1.157       .  T
C860        N865   1.154       .  T
C862        N864   1.155       .  T
N866       C1795   1.157       .  T
C867        C868   1.423       .  A
C867        C872   1.425       .  A
C868        C869   1.417       .  A
C868        C873   1.446       .  S
C869        C870   1.410       .  A
C869        C876   1.453       .  S
C870        C871   1.412       .  A
C871        C872   1.416       .  A
C871        C874   1.454       .  S
C872        C875   1.448       .  S
C873        N880   1.156       .  T
C874        N879   1.157       .  T
C875        N877   1.157       .  T
C876        N878   1.158       .  T
C881        C882   1.424       .  A
C881        C886   1.429       .  A
C882        C883   1.414       .  A
C882        C887   1.446       .  S
C883        C884   1.408       .  A
C883        C890   1.452       .  S
C884        C885   1.408       .  A
C885        C886   1.411       .  A
C885        C888   1.454       .  S
C886        C889   1.447       .  S
C887        N894   1.155       .  T
C889        N891   1.158       .  T
C890        N892   1.157       .  T
C895        C896   1.422       .  A
C895        C900   1.420       .  A
C896        C897   1.414       .  A
C896        C901   1.452       .  S
C897        C898   1.409       .  A
C897        C904   1.447       .  S
C898        C899   1.410       .  A
C899        C900   1.412       .  A
C899        C902   1.447       .  S
C900        C903   1.452       .  S
C901       N1844   1.158       .  T
C902        N907   1.157       .  T
C903        N905   1.158       .  T
C904        N906   1.156       .  T
N908       C1837   1.158   1_455  T
C909        C910   1.422       .  A
C909        C914   1.424       .  A
C910        C911   1.417       .  A
C910        C915   1.446       .  S
C911        C912   1.412       .  A
C911        C918   1.454       .  S
C912        C913   1.413       .  A
C913        C914   1.414       .  A
C913        C916   1.453       .  S
C914        C917   1.448       .  S
C915        N922   1.155       .  T
C916       N1857   1.157       .  T
C917        N919   1.156       .  T
C918        N920   1.158       .  T
N921       C1852   1.157   1_455  T
C923        C924   1.425       .  A
C923        C928   1.430       .  A
C924        C925   1.409       .  A
C924        C929   1.445       .  S
C925        C926   1.401       .  A
C925        C932   1.452       .  S
C926        C927   1.406       .  A
C927        C928   1.416       .  A
C927        C930   1.453       .  S
C928        C931   1.447       .  S
C929        N936   1.157       .  T
C930        N935   1.157       .  T
C931        N933   1.158       .  T
C932        N934   1.157       .  T
C937        H938   1.090       .  S
C937        C943   1.526       .  S
C937        C942   1.572       .  S
C937        C941   1.558       .  S
C939        H940   1.095       .  S
C939        C945   1.551       .  S
C939        C944   1.542       .  S
C939        C946   1.564       .  S
C941        C944   1.381       .  D
C941       C1143   1.524       .  S
C942        C945   1.406       .  D
C942       C1157   1.553       .  S
C943        C946   1.369       .  D
C943       C1132   1.502       .  S
C944       C1101   1.527       .  S
C945       C1115   1.527       .  S
C946       C1090   1.512       .  S
C947        H948   1.104       .  S
C947        C953   1.539       .  S
C947        C952   1.552       .  S
C947        C951   1.563       .  S
C949        H950   1.104       .  S
C949        C955   1.555       .  S
C949        C954   1.539       .  S
C949        C956   1.562       .  S
C951        C954   1.398       .  D
C951       C1059   1.526       .  S
C952        C955   1.390       .  D
C952       C1048   1.522       .  S
C953        C956   1.370       .  D
C953       C1076   1.517       .  S
C954       C1017   1.519       .  S
C955       C1006   1.529       .  S
C956       C1031   1.510       .  S
O957        C973   1.276       .  A
O957      Zn1431   2.030       .  S
C958        O974   1.276       .  A
C958        O971   1.273       .  A
C958       C1003   1.496       .  S
O959        C972   1.276       .  A
O959       Cd966   2.081       .  S
O960        C978   1.274       .  A
O960      Cd1203   2.056       .  S
O961        C975   1.277       .  A
O962        C973   1.274       .  A
O962       Cd965   2.062       .  S
Zn963      O1425   2.030   1_545  S
Zn963      O1210   2.028   1_554  S
Zn963       O968   1.956   1_554  S
O964        C975   1.273       .  A
O964      Cd1437   2.067       .  S
Cd965      O1201   2.070   1_554  S
Cd965      O1436   2.000   1_554  S
Cd966      O1438   2.098   1_545  S
Cd966      O1202   2.015       .  S
O967        C977   1.275       .  A
O967      Cd1199   2.070       .  S
O968      Cd1433   2.000   1_546  S
O968      Cd1200   2.015       .  S
Cd969      O1194   2.056   1_554  S
Cd969      O1432   2.067   1_545  S
Cd969       O971   2.060       .  S
O970        C977   1.278       .  A
O970      Cd1434   2.098       .  S
C972        O976   1.275       .  A
C972       C1087   1.483       .  S
C973       C1020   1.508       .  S
C975       C1034   1.510       .  S
O976      Zn1197   2.028       .  S
C977       C1104   1.497       .  S
C978        O979   1.277       .  A
C978       C1118   1.487       .  S
O980        C996   1.273       .  A
O980      Zn1454   2.009   1_545  S
C981        O997   1.274       .  A
C981        O994   1.277       .  A
C981       C1146   1.499       .  S
O982        C995   1.276       .  A
O983       C1001   1.275       .  A
O983       Cd992   2.059       .  S
O984        C998   1.276       .  A
O985        C996   1.274       .  A
O985       Cd988   2.074       .  S
Zn986      O1448   2.009       .  S
Zn986       O999   2.005       .  S
O987        C998   1.275       .  A
O987      Cd1460   2.072   1_545  S
Cd988       O990   2.063       .  S
Cd989      O1470   2.081   1_445  S
Cd989       O991   2.013   1_455  S
O990       C1000   1.274       .  A
O991      Cd1460   1.993   1_545  S
Cd992      O1455   2.072       .  S
Cd992       O994   2.086       .  S
Cd992      O1459   1.993       .  S
O993       C1000   1.275       .  A
C995        O999   1.273       .  A
C995       C1073   1.486       .  S
C996       C1160   1.477       .  S
C998       C1129   1.504       .  S
C1000      C1045   1.485       .  S
C1001      O1002   1.275       .  A
C1001      C1062   1.485       .  S
O1002     Cd1457   2.081   1_655  S
C1003      C1004   1.410       .  A
C1003      C1008   1.410       .  A
C1004      C1005   1.413       .  A
C1004      C1009   1.456       .  S
C1005      C1006   1.428       .  A
C1005      C1012   1.448       .  S
C1006      C1007   1.426       .  A
C1007      C1008   1.418       .  A
C1007      C1010   1.448       .  S
C1008      C1011   1.453       .  S
C1009      N1016   1.158       .  T
C1010      N1015   1.157       .  T
C1011      N1013   1.158       .  T
C1012      N1014   1.156       .  T
C1017      C1018   1.401       .  A
C1017      C1022   1.407       .  A
C1018      C1019   1.411       .  A
C1018      C1023   1.445       .  S
C1019      C1020   1.426       .  A
C1019      C1026   1.450       .  S
C1020      C1021   1.425       .  A
C1021      C1022   1.412       .  A
C1021      C1024   1.451       .  S
C1022      C1025   1.447       .  S
C1023      N1030   1.156       .  T
C1024      N1497   1.158       .  T
C1025      N1027   1.158       .  T
C1026      N1028   1.157       .  T
N1029      C1492   1.158   1_545  T
C1031      C1032   1.415       .  A
C1031      C1036   1.415       .  A
C1032      C1033   1.415       .  A
C1032      C1037   1.447       .  S
C1033      C1034   1.418       .  A
C1034      C1035   1.421       .  A
C1035      C1036   1.414       .  A
C1035      C1038   1.453       .  S
C1036      C1039   1.448       .  S
C1037      N1044   1.156       .  T
C1038      N1511   1.158       .  T
C1039      N1041   1.158       .  T
C1040      N1042   1.157       .  T
N1043      C1506   1.158       .  T
C1045      C1046   1.408       .  A
C1045      C1050   1.408       .  A
C1046      C1047   1.412       .  A
C1047      C1048   1.426       .  A
C1047      C1054   1.449       .  S
C1048      C1049   1.428       .  A
C1049      C1050   1.413       .  A
C1049      C1052   1.449       .  S
C1050      C1053   1.455       .  S
C1051      N1058   1.157   1_455  T
C1052      N1057   1.157       .  T
C1053      N1055   1.157       .  T
C1054      N1056   1.157       .  T
C1059      C1060   1.426       .  A
C1059      C1064   1.424       .  A
C1060      C1061   1.411       .  A
C1060      C1065   1.444       .  S
C1061      C1062   1.406       .  A
C1061      C1068   1.456       .  S
C1062      C1063   1.404       .  A
C1063      C1064   1.416       .  A
C1063      C1066   1.454       .  S
C1064      C1067   1.442       .  S
C1065      N1072   1.157       .  T
C1066      N1071   1.157       .  T
C1067      N1069   1.156       .  T
C1068      N1538   1.157       .  T
N1070      C1536   1.157   1_545  T
C1073      C1074   1.410       .  A
C1073      C1078   1.408       .  A
C1074      C1075   1.413       .  A
C1074      C1079   1.454       .  S
C1075      C1076   1.418       .  A
C1075      C1082   1.444       .  S
C1076      C1077   1.420       .  A
C1077      C1078   1.413       .  A
C1077      C1080   1.445       .  S
C1078      C1549   1.453       .  S
C1080      N1085   1.157       .  T
C1081      C1546   1.453   1_545  S
C1081      N1083   1.157       .  T
C1082      N1084   1.156       .  T
C1087      C1088   1.407       .  A
C1087      C1092   1.405       .  A
C1088      C1089   1.415       .  A
C1088      C1093   1.451   1_655  S
C1089      C1090   1.419       .  A
C1089      C1096   1.444       .  S
C1090      C1091   1.418       .  A
C1091      C1092   1.413       .  A
C1091      C1094   1.440       .  S
C1092      C1095   1.453       .  S
C1094      N1099   1.154       .  T
C1095      N1565   1.157   1_545  T
C1096      N1098   1.155       .  T
N1097      C1563   1.157       .  T
C1101      C1102   1.423       .  A
C1101      C1106   1.425       .  A
C1102      C1103   1.417       .  A
C1102      C1107   1.446       .  S
C1103      C1104   1.410       .  A
C1103      C1110   1.453       .  S
C1104      C1105   1.412       .  A
C1105      C1106   1.416       .  A
C1105      C1108   1.454       .  S
C1106      C1109   1.448       .  S
C1107      N1114   1.156       .  T
C1108      N1113   1.157       .  T
C1109      N1111   1.157       .  T
C1110      N1112   1.158       .  T
C1115      C1116   1.424       .  A
C1115      C1120   1.429       .  A
C1116      C1117   1.414       .  A
C1116      C1121   1.446       .  S
C1117      C1118   1.408       .  A
C1117      C1124   1.452       .  S
C1118      C1119   1.408       .  A
C1119      C1120   1.411       .  A
C1119      C1122   1.454       .  S
C1120      C1123   1.447       .  S
C1121      N1128   1.155       .  T
C1122      N1595   1.157       .  T
C1123      N1125   1.158       .  T
C1124      N1126   1.157       .  T
N1127      C1590   1.157       .  T
C1129      C1130   1.422       .  A
C1129      C1134   1.420       .  A
C1130      C1131   1.414       .  A
C1130      C1135   1.452       .  S
C1131      C1132   1.409       .  A
C1131      C1138   1.447       .  S
C1132      C1133   1.410       .  A
C1133      C1134   1.412       .  A
C1133      C1136   1.447       .  S
C1134      C1137   1.452       .  S
C1136      N1141   1.157       .  T
C1137      N1139   1.158   1_545  T
C1138      N1140   1.156       .  T
C1143      C1144   1.422       .  A
C1143      C1148   1.424       .  A
C1144      C1145   1.417       .  A
C1144      C1149   1.446       .  S
C1145      C1146   1.412       .  A
C1145      C1152   1.454       .  S
C1146      C1147   1.413       .  A
C1147      C1148   1.414       .  A
C1147      C1150   1.453       .  S
C1148      C1151   1.448       .  S
C1149      N1156   1.155       .  T
C1151      N1153   1.156       .  T
C1152      N1154   1.158       .  T
C1157      C1158   1.425       .  A
C1157      C1162   1.430       .  A
C1158      C1159   1.409       .  A
C1158      C1163   1.445       .  S
C1159      C1160   1.401       .  A
C1159      C1166   1.452       .  S
C1160      C1161   1.406       .  A
C1161      C1162   1.416       .  A
C1161      C1164   1.453       .  S
C1162      C1165   1.447       .  S
C1163      N1170   1.157       .  T
C1164      N1169   1.157       .  T
C1165      N1167   1.158       .  T
C1166      N1168   1.157       .  T
C1171      H1172   1.090       .  S
C1171      C1177   1.526       .  S
C1171      C1176   1.572       .  S
C1171      C1175   1.558       .  S
C1173      H1174   1.095       .  S
C1173      C1179   1.551       .  S
C1173      C1178   1.542       .  S
C1173      C1180   1.564       .  S
C1175      C1178   1.381       .  D
C1175      C1377   1.524       .  S
C1176      C1179   1.406       .  D
C1176      C1391   1.553       .  S
C1177      C1180   1.369       .  D
C1177      C1366   1.502       .  S
C1178      C1335   1.527       .  S
C1179      C1349   1.527       .  S
C1180      C1324   1.512       .  S
C1181      H1182   1.104       .  S
C1181      C1187   1.539       .  S
C1181      C1186   1.552       .  S
C1181      C1185   1.563       .  S
C1183      H1184   1.104       .  S
C1183      C1189   1.555       .  S
C1183      C1188   1.539       .  S
C1183      C1190   1.562       .  S
C1185      C1188   1.398       .  D
C1185      C1293   1.526       .  S
C1186      C1189   1.390       .  D
C1186      C1282   1.522       .  S
C1187      C1190   1.370       .  D
C1187      C1310   1.517       .  S
C1188      C1251   1.519       .  S
C1189      C1240   1.529       .  S
C1190      C1265   1.510       .  S
O1191      C1207   1.276       .  A
O1191     Zn1665   2.030       .  S
C1192      O1208   1.276       .  A
C1192      O1205   1.273       .  A
C1192      C1237   1.496       .  S
O1193      C1206   1.276       .  A
O1193     Cd1200   2.081       .  S
O1194      C1212   1.274       .  A
O1195      C1209   1.277       .  A
O1196      C1207   1.274       .  A
O1196     Cd1199   2.062       .  S
Zn1197     O1659   2.030   1_545  S
Zn1197     O1202   1.956       .  S
O1198      C1209   1.273       .  A
O1198     Cd1671   2.067       .  S
Cd1199     O1670   2.000       .  S
Cd1200     O1672   2.098   1_545  S
O1201      C1211   1.275       .  A
O1202     Cd1667   2.000   1_545  S
Cd1203     O1666   2.067   1_545  S
Cd1203     O1205   2.060       .  S
O1204      C1211   1.278       .  A
O1204     Cd1668   2.098       .  S
C1206      O1210   1.275       .  A
C1206      C1321   1.483       .  S
C1207      C1254   1.508       .  S
C1209      C1268   1.510       .  S
C1211      C1338   1.497       .  S
C1212      O1213   1.277       .  A
C1212      C1352   1.487       .  S
O1214      C1230   1.273       .  A
O1214     Zn1688   2.009   1_545  S
C1215      O1231   1.274       .  A
C1215      O1228   1.277       .  A
C1215      C1380   1.499       .  S
O1216      C1229   1.276       .  A
O1217      C1235   1.275       .  A
O1217     Cd1226   2.059       .  S
O1218      C1232   1.276       .  A
O1219      C1230   1.274       .  A
O1219     Cd1222   2.074       .  S
Zn1220     O1682   2.009       .  S
Zn1220     O1233   2.005       .  S
O1221      C1232   1.275       .  A
O1221     Cd1694   2.072   1_545  S
Cd1222     O1224   2.063       .  S
Cd1223     O1704   2.081   1_445  S
Cd1223     O1225   2.013   1_455  S
O1224      C1234   1.274       .  A
O1225     Cd1694   1.993   1_545  S
Cd1226     O1689   2.072       .  S
Cd1226     O1228   2.086       .  S
Cd1226     O1693   1.993       .  S
O1227      C1234   1.275       .  A
C1229      O1233   1.273       .  A
C1229      C1307   1.486       .  S
C1230      C1394   1.477       .  S
C1232      C1363   1.504       .  S
C1234      C1279   1.485       .  S
C1235      O1236   1.275       .  A
C1235      C1296   1.485       .  S
O1236     Cd1691   2.081   1_655  S
C1237      C1238   1.410       .  A
C1237      C1242   1.410       .  A
C1238      C1239   1.413       .  A
C1238      C1243   1.456       .  S
C1239      C1240   1.428       .  A
C1239      C1246   1.448       .  S
C1240      C1241   1.426       .  A
C1241      C1242   1.418       .  A
C1241      C1244   1.448       .  S
C1242      C1245   1.453       .  S
C1243      N1250   1.158       .  T
C1244      N1249   1.157       .  T
C1245      N1247   1.158       .  T
C1246      N1248   1.156       .  T
C1251      C1252   1.401       .  A
C1251      C1256   1.407       .  A
C1252      C1253   1.411       .  A
C1252      C1257   1.445       .  S
C1253      C1254   1.426       .  A
C1253      C1260   1.450       .  S
C1254      C1255   1.425       .  A
C1255      C1256   1.412       .  A
C1255      C1258   1.451       .  S
C1256      C1259   1.447       .  S
C1257      N1264   1.156       .  T
C1258      N1731   1.158       .  T
C1259      N1261   1.158       .  T
C1260      N1262   1.157       .  T
N1263      C1726   1.158   1_545  T
C1265      C1266   1.415       .  A
C1265      C1270   1.415       .  A
C1266      C1267   1.415       .  A
C1266      C1271   1.447       .  S
C1267      C1268   1.418       .  A
C1268      C1269   1.421       .  A
C1269      C1270   1.414       .  A
C1269      C1272   1.453       .  S
C1270      C1273   1.448       .  S
C1271      N1278   1.156       .  T
C1272      N1745   1.158       .  T
C1273      N1275   1.158       .  T
C1274      N1276   1.157       .  T
N1277      C1740   1.158       .  T
C1279      C1280   1.408       .  A
C1279      C1284   1.408       .  A
C1280      C1281   1.412       .  A
C1281      C1282   1.426       .  A
C1281      C1288   1.449       .  S
C1282      C1283   1.428       .  A
C1283      C1284   1.413       .  A
C1283      C1286   1.449       .  S
C1284      C1287   1.455       .  S
C1285      N1292   1.157   1_455  T
C1286      N1291   1.157       .  T
C1287      N1289   1.157       .  T
C1288      N1290   1.157       .  T
C1293      C1294   1.426       .  A
C1293      C1298   1.424       .  A
C1294      C1295   1.411       .  A
C1294      C1299   1.444       .  S
C1295      C1296   1.406       .  A
C1295      C1302   1.456       .  S
C1296      C1297   1.404       .  A
C1297      C1298   1.416       .  A
C1297      C1300   1.454       .  S
C1298      C1301   1.442       .  S
C1299      N1306   1.157       .  T
C1300      N1305   1.157       .  T
C1301      N1303   1.156       .  T
C1302      N1772   1.157       .  T
N1304      C1770   1.157   1_545  T
C1307      C1308   1.410       .  A
C1307      C1312   1.408       .  A
C1308      C1309   1.413       .  A
C1308      C1313   1.454       .  S
C1309      C1310   1.418       .  A
C1309      C1316   1.444       .  S
C1310      C1311   1.420       .  A
C1311      C1312   1.413       .  A
C1311      C1314   1.445       .  S
C1312      C1783   1.453       .  S
C1314      N1319   1.157       .  T
C1315      C1780   1.453   1_545  S
C1315      N1317   1.157       .  T
C1316      N1318   1.156       .  T
C1321      C1322   1.407       .  A
C1321      C1326   1.405       .  A
C1322      C1323   1.415       .  A
C1322      C1327   1.451   1_655  S
C1323      C1324   1.419       .  A
C1323      C1330   1.444       .  S
C1324      C1325   1.418       .  A
C1325      C1326   1.413       .  A
C1325      C1328   1.440       .  S
C1326      C1329   1.453       .  S
C1328      N1333   1.154       .  T
C1329      N1799   1.157   1_545  T
C1330      N1332   1.155       .  T
N1331      C1797   1.157       .  T
C1335      C1336   1.423       .  A
C1335      C1340   1.425       .  A
C1336      C1337   1.417       .  A
C1336      C1341   1.446       .  S
C1337      C1338   1.410       .  A
C1337      C1344   1.453       .  S
C1338      C1339   1.412       .  A
C1339      C1340   1.416       .  A
C1339      C1342   1.454       .  S
C1340      C1343   1.448       .  S
C1341      N1348   1.156       .  T
C1342      N1347   1.157       .  T
C1343      N1345   1.157       .  T
C1344      N1346   1.158       .  T
C1349      C1350   1.424       .  A
C1349      C1354   1.429       .  A
C1350      C1351   1.414       .  A
C1350      C1355   1.446       .  S
C1351      C1352   1.408       .  A
C1351      C1358   1.452       .  S
C1352      C1353   1.408       .  A
C1353      C1354   1.411       .  A
C1353      C1356   1.454       .  S
C1354      C1357   1.447       .  S
C1355      N1362   1.155       .  T
C1356      N1829   1.157       .  T
C1357      N1359   1.158       .  T
C1358      N1360   1.157       .  T
N1361      C1824   1.157       .  T
C1363      C1364   1.422       .  A
C1363      C1368   1.420       .  A
C1364      C1365   1.414       .  A
C1364      C1369   1.452       .  S
C1365      C1366   1.409       .  A
C1365      C1372   1.447       .  S
C1366      C1367   1.410       .  A
C1367      C1368   1.412       .  A
C1367      C1370   1.447       .  S
C1368      C1371   1.452       .  S
C1370      N1375   1.157       .  T
C1371      N1373   1.158   1_545  T
C1372      N1374   1.156       .  T
C1377      C1378   1.422       .  A
C1377      C1382   1.424       .  A
C1378      C1379   1.417       .  A
C1378      C1383   1.446       .  S
C1379      C1380   1.412       .  A
C1379      C1386   1.454       .  S
C1380      C1381   1.413       .  A
C1381      C1382   1.414       .  A
C1381      C1384   1.453       .  S
C1382      C1385   1.448       .  S
C1383      N1390   1.155       .  T
C1385      N1387   1.156       .  T
C1386      N1388   1.158       .  T
C1391      C1392   1.425       .  A
C1391      C1396   1.430       .  A
C1392      C1393   1.409       .  A
C1392      C1397   1.445       .  S
C1393      C1394   1.401       .  A
C1393      C1400   1.452       .  S
C1394      C1395   1.406       .  A
C1395      C1396   1.416       .  A
C1395      C1398   1.453       .  S
C1396      C1399   1.447       .  S
C1397      N1404   1.157       .  T
C1398      N1403   1.157       .  T
C1399      N1401   1.158       .  T
C1400      N1402   1.157       .  T
C1405      H1406   1.090       .  S
C1405      C1411   1.526       .  S
C1405      C1410   1.572       .  S
C1405      C1409   1.558       .  S
C1407      H1408   1.095       .  S
C1407      C1413   1.551       .  S
C1407      C1412   1.542       .  S
C1407      C1414   1.564       .  S
C1409      C1412   1.381       .  D
C1409      C1611   1.524       .  S
C1410      C1413   1.406       .  D
C1410      C1625   1.553       .  S
C1411      C1414   1.369       .  D
C1411      C1600   1.502       .  S
C1412      C1569   1.527       .  S
C1413      C1583   1.527       .  S
C1414      C1558   1.512       .  S
C1415      H1416   1.104       .  S
C1415      C1421   1.539       .  S
C1415      C1420   1.552       .  S
C1415      C1419   1.563       .  S
C1417      H1418   1.104       .  S
C1417      C1423   1.555       .  S
C1417      C1422   1.539       .  S
C1417      C1424   1.562       .  S
C1419      C1422   1.398       .  D
C1419      C1527   1.526       .  S
C1420      C1423   1.390       .  D
C1420      C1516   1.522       .  S
C1421      C1424   1.370       .  D
C1421      C1544   1.517       .  S
C1422      C1485   1.519       .  S
C1423      C1474   1.529       .  S
C1424      C1499   1.510       .  S
O1425      C1441   1.276       .  A
C1426      O1442   1.276       .  A
C1426      O1439   1.273       .  A
C1426      C1471   1.496       .  S
O1427      C1440   1.276       .  A
O1427     Cd1434   2.081       .  S
O1428      C1446   1.274       .  A
O1428     Cd1671   2.056       .  S
O1429      C1443   1.277       .  A
O1430      C1441   1.274       .  A
O1430     Cd1433   2.062       .  S
Zn1431     O1678   2.028   1_554  S
Zn1431     O1436   1.956   1_554  S
O1432      C1443   1.273       .  A
Cd1433     O1669   2.070   1_554  S
Cd1434     O1670   2.015       .  S
O1435      C1445   1.275       .  A
O1435     Cd1667   2.070       .  S
O1436     Cd1668   2.015       .  S
Cd1437     O1662   2.056   1_554  S
Cd1437     O1439   2.060       .  S
O1438      C1445   1.278       .  A
C1440      O1444   1.275       .  A
C1440      C1555   1.483       .  S
C1441      C1488   1.508       .  S
C1443      C1502   1.510       .  S
O1444     Zn1665   2.028       .  S
C1445      C1572   1.497       .  S
C1446      O1447   1.277       .  A
C1446      C1586   1.487       .  S
O1448      C1464   1.273       .  A
C1449      O1465   1.274       .  A
C1449      O1462   1.277       .  A
C1449      C1614   1.499       .  S
O1450      C1463   1.276       .  A
O1451      C1469   1.275       .  A
O1451     Cd1460   2.059       .  S
O1452      C1466   1.276       .  A
O1453      C1464   1.274       .  A
O1453     Cd1456   2.074       .  S
Zn1454     O1467   2.005       .  S
O1455      C1466   1.275       .  A
Cd1456     O1458   2.063       .  S
Cd1457     O1459   2.013   1_455  S
O1458      C1468   1.274       .  A
Cd1460     O1462   2.086       .  S
O1461      C1468   1.275       .  A
C1463      O1467   1.273       .  A
C1463      C1541   1.486       .  S
C1464      C1628   1.477       .  S
C1466      C1597   1.504       .  S
C1468      C1513   1.485       .  S
C1469      O1470   1.275       .  A
C1469      C1530   1.485       .  S
C1471      C1472   1.410       .  A
C1471      C1476   1.410       .  A
C1472      C1473   1.413       .  A
C1472      C1477   1.456       .  S
C1473      C1474   1.428       .  A
C1473      C1480   1.448       .  S
C1474      C1475   1.426       .  A
C1475      C1476   1.418       .  A
C1475      C1478   1.448       .  S
C1476      C1479   1.453       .  S
C1477      N1484   1.158       .  T
C1478      N1483   1.157       .  T
C1479      N1481   1.158       .  T
C1480      N1482   1.156       .  T
C1485      C1486   1.401       .  A
C1485      C1490   1.407       .  A
C1486      C1487   1.411       .  A
C1486      C1491   1.445       .  S
C1487      C1488   1.426       .  A
C1487      C1494   1.450       .  S
C1488      C1489   1.425       .  A
C1489      C1490   1.412       .  A
C1489      C1492   1.451       .  S
C1490      C1493   1.447       .  S
C1491      N1498   1.156       .  T
C1493      N1495   1.158       .  T
C1494      N1496   1.157       .  T
C1499      C1500   1.415       .  A
C1499      C1504   1.415       .  A
C1500      C1501   1.415       .  A
C1500      C1505   1.447       .  S
C1501      C1502   1.418       .  A
C1502      C1503   1.421       .  A
C1503      C1504   1.414       .  A
C1503      C1506   1.453   1_565  S
C1504      C1507   1.448       .  S
C1505      N1512   1.156       .  T
C1507      N1509   1.158       .  T
C1508      N1510   1.157       .  T
C1513      C1514   1.408       .  A
C1513      C1518   1.408       .  A
C1514      C1515   1.412       .  A
C1515      C1516   1.426       .  A
C1515      C1522   1.449       .  S
C1516      C1517   1.428       .  A
C1517      C1518   1.413       .  A
C1517      C1520   1.449       .  S
C1518      C1521   1.455       .  S
C1519      N1526   1.157   1_455  T
C1520      N1525   1.157       .  T
C1521      N1523   1.157       .  T
C1522      N1524   1.157       .  T
C1527      C1528   1.426       .  A
C1527      C1532   1.424       .  A
C1528      C1529   1.411       .  A
C1528      C1533   1.444       .  S
C1529      C1530   1.406       .  A
C1529      C1536   1.456       .  S
C1530      C1531   1.404       .  A
C1531      C1532   1.416       .  A
C1531      C1534   1.454       .  S
C1532      C1535   1.442       .  S
C1533      N1540   1.157       .  T
C1534      N1539   1.157       .  T
C1535      N1537   1.156       .  T
C1541      C1542   1.410       .  A
C1541      C1546   1.408       .  A
C1542      C1543   1.413       .  A
C1542      C1547   1.454       .  S
C1543      C1544   1.418       .  A
C1543      C1550   1.444       .  S
C1544      C1545   1.420       .  A
C1545      C1546   1.413       .  A
C1545      C1548   1.445       .  S
C1548      N1553   1.157   1_565  T
C1549      N1551   1.157       .  T
C1550      N1552   1.156       .  T
C1555      C1556   1.407       .  A
C1555      C1560   1.405       .  A
C1556      C1557   1.415       .  A
C1556      C1561   1.451   1_655  S
C1557      C1558   1.419       .  A
C1557      C1564   1.444       .  S
C1558      C1559   1.418       .  A
C1559      C1560   1.413       .  A
C1559      C1562   1.440       .  S
C1560      C1563   1.453       .  S
C1562      N1567   1.154       .  T
C1564      N1566   1.155       .  T
C1569      C1570   1.423       .  A
C1569      C1574   1.425       .  A
C1570      C1571   1.417       .  A
C1570      C1575   1.446       .  S
C1571      C1572   1.410       .  A
C1571      C1578   1.453       .  S
C1572      C1573   1.412       .  A
C1573      C1574   1.416       .  A
C1573      C1576   1.454       .  S
C1574      C1577   1.448       .  S
C1575      N1582   1.156       .  T
C1576      N1581   1.157       .  T
C1577      N1579   1.157       .  T
C1578      N1580   1.158       .  T
C1583      C1584   1.424       .  A
C1583      C1588   1.429       .  A
C1584      C1585   1.414       .  A
C1584      C1589   1.446       .  S
C1585      C1586   1.408       .  A
C1585      C1592   1.452       .  S
C1586      C1587   1.408       .  A
C1587      C1588   1.411       .  A
C1587      C1590   1.454       .  S
C1588      C1591   1.447       .  S
C1589      N1596   1.155       .  T
C1591      N1593   1.158       .  T
C1592      N1594   1.157       .  T
C1597      C1598   1.422       .  A
C1597      C1602   1.420       .  A
C1598      C1599   1.414       .  A
C1598      C1603   1.452       .  S
C1599      C1600   1.409       .  A
C1599      C1606   1.447       .  S
C1600      C1601   1.410       .  A
C1601      C1602   1.412       .  A
C1601      C1604   1.447       .  S
C1602      C1605   1.452       .  S
C1604      N1609   1.157       .  T
C1605      N1607   1.158       .  T
C1606      N1608   1.156       .  T
C1611      C1612   1.422       .  A
C1611      C1616   1.424       .  A
C1612      C1613   1.417       .  A
C1612      C1617   1.446       .  S
C1613      C1614   1.412       .  A
C1613      C1620   1.454       .  S
C1614      C1615   1.413       .  A
C1615      C1616   1.414       .  A
C1615      C1618   1.453       .  S
C1616      C1619   1.448       .  S
C1617      N1624   1.155       .  T
C1619      N1621   1.156       .  T
C1620      N1622   1.158       .  T
C1625      C1626   1.425       .  A
C1625      C1630   1.430       .  A
C1626      C1627   1.409       .  A
C1626      C1631   1.445       .  S
C1627      C1628   1.401       .  A
C1627      C1634   1.452       .  S
C1628      C1629   1.406       .  A
C1629      C1630   1.416       .  A
C1629      C1632   1.453       .  S
C1630      C1633   1.447       .  S
C1631      N1638   1.157       .  T
C1632      N1637   1.157       .  T
C1633      N1635   1.158       .  T
C1634      N1636   1.157       .  T
C1639      H1640   1.090       .  S
C1639      C1645   1.526       .  S
C1639      C1644   1.572       .  S
C1639      C1643   1.558       .  S
C1641      H1642   1.095       .  S
C1641      C1647   1.551       .  S
C1641      C1646   1.542       .  S
C1641      C1648   1.564       .  S
C1643      C1646   1.381       .  D
C1643      C1845   1.524       .  S
C1644      C1647   1.406       .  D
C1644      C1859   1.553       .  S
C1645      C1648   1.369       .  D
C1645      C1834   1.502       .  S
C1646      C1803   1.527       .  S
C1647      C1817   1.527       .  S
C1648      C1792   1.512       .  S
C1649      H1650   1.104       .  S
C1649      C1655   1.539       .  S
C1649      C1654   1.552       .  S
C1649      C1653   1.563       .  S
C1651      H1652   1.104       .  S
C1651      C1657   1.555       .  S
C1651      C1656   1.539       .  S
C1651      C1658   1.562       .  S
C1653      C1656   1.398       .  D
C1653      C1761   1.526       .  S
C1654      C1657   1.390       .  D
C1654      C1750   1.522       .  S
C1655      C1658   1.370       .  D
C1655      C1778   1.517       .  S
C1656      C1719   1.519       .  S
C1657      C1708   1.529       .  S
C1658      C1733   1.510       .  S
O1659      C1675   1.276       .  A
C1660      O1676   1.276       .  A
C1660      O1673   1.273       .  A
C1660      C1705   1.496       .  S
O1661      C1674   1.276       .  A
O1661     Cd1668   2.081       .  S
O1662      C1680   1.274       .  A
O1663      C1677   1.277       .  A
O1664      C1675   1.274       .  A
O1664     Cd1667   2.062       .  S
Zn1665     O1670   1.956       .  S
O1666      C1677   1.273       .  A
O1669      C1679   1.275       .  A
Cd1671     O1673   2.060       .  S
O1672      C1679   1.278       .  A
C1674      O1678   1.275       .  A
C1674      C1789   1.483       .  S
C1675      C1722   1.508       .  S
C1677      C1736   1.510       .  S
C1679      C1806   1.497       .  S
C1680      O1681   1.277       .  A
C1680      C1820   1.487       .  S
O1682      C1698   1.273       .  A
C1683      O1699   1.274       .  A
C1683      O1696   1.277       .  A
C1683      C1848   1.499       .  S
O1684      C1697   1.276       .  A
O1685      C1703   1.275       .  A
O1685     Cd1694   2.059       .  S
O1686      C1700   1.276       .  A
O1687      C1698   1.274       .  A
O1687     Cd1690   2.074       .  S
Zn1688     O1701   2.005       .  S
O1689      C1700   1.275       .  A
Cd1690     O1692   2.063       .  S
Cd1691     O1693   2.013   1_455  S
O1692      C1702   1.274       .  A
Cd1694     O1696   2.086       .  S
O1695      C1702   1.275       .  A
C1697      O1701   1.273       .  A
C1697      C1775   1.486       .  S
C1698      C1862   1.477       .  S
C1700      C1831   1.504       .  S
C1702      C1747   1.485       .  S
C1703      O1704   1.275       .  A
C1703      C1764   1.485       .  S
C1705      C1706   1.410       .  A
C1705      C1710   1.410       .  A
C1706      C1707   1.413       .  A
C1706      C1711   1.456       .  S
C1707      C1708   1.428       .  A
C1707      C1714   1.448       .  S
C1708      C1709   1.426       .  A
C1709      C1710   1.418       .  A
C1709      C1712   1.448       .  S
C1710      C1713   1.453       .  S
C1711      N1718   1.158       .  T
C1712      N1717   1.157       .  T
C1713      N1715   1.158       .  T
C1714      N1716   1.156       .  T
C1719      C1720   1.401       .  A
C1719      C1724   1.407       .  A
C1720      C1721   1.411       .  A
C1720      C1725   1.445       .  S
C1721      C1722   1.426       .  A
C1721      C1728   1.450       .  S
C1722      C1723   1.425       .  A
C1723      C1724   1.412       .  A
C1723      C1726   1.451       .  S
C1724      C1727   1.447       .  S
C1725      N1732   1.156       .  T
C1727      N1729   1.158       .  T
C1728      N1730   1.157       .  T
C1733      C1734   1.415       .  A
C1733      C1738   1.415       .  A
C1734      C1735   1.415       .  A
C1734      C1739   1.447       .  S
C1735      C1736   1.418       .  A
C1736      C1737   1.421       .  A
C1737      C1738   1.414       .  A
C1737      C1740   1.453   1_565  S
C1738      C1741   1.448       .  S
C1739      N1746   1.156       .  T
C1741      N1743   1.158       .  T
C1742      N1744   1.157       .  T
C1747      C1748   1.408       .  A
C1747      C1752   1.408       .  A
C1748      C1749   1.412       .  A
C1749      C1750   1.426       .  A
C1749      C1756   1.449       .  S
C1750      C1751   1.428       .  A
C1751      C1752   1.413       .  A
C1751      C1754   1.449       .  S
C1752      C1755   1.455       .  S
C1753      N1760   1.157   1_455  T
C1754      N1759   1.157       .  T
C1755      N1757   1.157       .  T
C1756      N1758   1.157       .  T
C1761      C1762   1.426       .  A
C1761      C1766   1.424       .  A
C1762      C1763   1.411       .  A
C1762      C1767   1.444       .  S
C1763      C1764   1.406       .  A
C1763      C1770   1.456       .  S
C1764      C1765   1.404       .  A
C1765      C1766   1.416       .  A
C1765      C1768   1.454       .  S
C1766      C1769   1.442       .  S
C1767      N1774   1.157       .  T
C1768      N1773   1.157       .  T
C1769      N1771   1.156       .  T
C1775      C1776   1.410       .  A
C1775      C1780   1.408       .  A
C1776      C1777   1.413       .  A
C1776      C1781   1.454       .  S
C1777      C1778   1.418       .  A
C1777      C1784   1.444       .  S
C1778      C1779   1.420       .  A
C1779      C1780   1.413       .  A
C1779      C1782   1.445       .  S
C1782      N1787   1.157   1_565  T
C1783      N1785   1.157       .  T
C1784      N1786   1.156       .  T
C1789      C1790   1.407       .  A
C1789      C1794   1.405       .  A
C1790      C1791   1.415       .  A
C1790      C1795   1.451   1_655  S
C1791      C1792   1.419       .  A
C1791      C1798   1.444       .  S
C1792      C1793   1.418       .  A
C1793      C1794   1.413       .  A
C1793      C1796   1.440       .  S
C1794      C1797   1.453       .  S
C1796      N1801   1.154       .  T
C1798      N1800   1.155       .  T
C1803      C1804   1.423       .  A
C1803      C1808   1.425       .  A
C1804      C1805   1.417       .  A
C1804      C1809   1.446       .  S
C1805      C1806   1.410       .  A
C1805      C1812   1.453       .  S
C1806      C1807   1.412       .  A
C1807      C1808   1.416       .  A
C1807      C1810   1.454       .  S
C1808      C1811   1.448       .  S
C1809      N1816   1.156       .  T
C1810      N1815   1.157       .  T
C1811      N1813   1.157       .  T
C1812      N1814   1.158       .  T
C1817      C1818   1.424       .  A
C1817      C1822   1.429       .  A
C1818      C1819   1.414       .  A
C1818      C1823   1.446       .  S
C1819      C1820   1.408       .  A
C1819      C1826   1.452       .  S
C1820      C1821   1.408       .  A
C1821      C1822   1.411       .  A
C1821      C1824   1.454       .  S
C1822      C1825   1.447       .  S
C1823      N1830   1.155       .  T
C1825      N1827   1.158       .  T
C1826      N1828   1.157       .  T
C1831      C1832   1.422       .  A
C1831      C1836   1.420       .  A
C1832      C1833   1.414       .  A
C1832      C1837   1.452       .  S
C1833      C1834   1.409       .  A
C1833      C1840   1.447       .  S
C1834      C1835   1.410       .  A
C1835      C1836   1.412       .  A
C1835      C1838   1.447       .  S
C1836      C1839   1.452       .  S
C1838      N1843   1.157       .  T
C1839      N1841   1.158       .  T
C1840      N1842   1.156       .  T
C1845      C1846   1.422       .  A
C1845      C1850   1.424       .  A
C1846      C1847   1.417       .  A
C1846      C1851   1.446       .  S
C1847      C1848   1.412       .  A
C1847      C1854   1.454       .  S
C1848      C1849   1.413       .  A
C1849      C1850   1.414       .  A
C1849      C1852   1.453       .  S
C1850      C1853   1.448       .  S
C1851      N1858   1.155       .  T
C1853      N1855   1.156       .  T
C1854      N1856   1.158       .  T
C1859      C1860   1.425       .  A
C1859      C1864   1.430       .  A
C1860      C1861   1.409       .  A
C1860      C1865   1.445       .  S
C1861      C1862   1.401       .  A
C1861      C1868   1.452       .  S
C1862      C1863   1.406       .  A
C1863      C1864   1.416       .  A
C1863      C1866   1.453       .  S
C1864      C1867   1.447       .  S
C1865      N1872   1.157       .  T
C1866      N1871   1.157       .  T
C1867      N1869   1.158       .  T
C1868      N1870   1.157       .  T
