geometry optimzed in LAMMPS
_audit_creation_date              2020-11-30 
_audit_creation_method            'lammps2cif' 
_symmetry_space_group_name_H-M    'P1' 
_symmetry_Int_Tables_number       1 
_symmetry_cell_setting            triclinic 
loop_ 
_symmetry_equiv_pos_as_xyz 
  x,y,z 
_cell_length_a                    33.10082831 
_cell_length_b                    60.94364495848553 
_cell_length_c                    46.80485577347361 
_cell_angle_alpha                 89.9246996447112 
_cell_angle_beta                  90.00747880854325 
_cell_angle_gamma                 90.04656707712125 
loop_ 
_atom_site_label 
_atom_site_type_symbol 
_atom_site_fract_x 
_atom_site_fract_y 
_atom_site_fract_z 
_atom_site_charge 
C1          C  0.70041655  0.21849190  0.40103051     0.03300
C2          C  0.71548295  0.21427643  0.37348498    -0.12900
C3          C  0.70134555  0.19622645  0.35751407     0.00800
C4          C  0.67283472  0.18193401  0.36993782    -0.11400
C5          C  0.65733230  0.18618641  0.39722268     0.03200
C6          C  0.67122406  0.20434503  0.41258321    -0.10800
H7          H  0.73657267  0.22573144  0.36393239     0.08800
H8          H  0.66137669  0.16805437  0.35797217     0.06400
H9          H  0.65905760  0.20743853  0.43369509     0.06200
C10         C  0.80376023  0.19791475  0.09661729     0.03300
C11         C  0.83135036  0.18303463  0.08446118    -0.12900
C12         C  0.84813155  0.18710986  0.05750500     0.00800
C13         C  0.83621707  0.20569830  0.04208979    -0.11400
C14         C  0.80767462  0.22037547  0.05328152     0.03200
C15         C  0.79158259  0.21636738  0.08061530    -0.10800
H16         H  0.84115340  0.16877241  0.09643326     0.08800
H17         H  0.84920470  0.20862377  0.02117415     0.06400
H18         H  0.77112110  0.22821032  0.08996674     0.06200
N19         N  0.41706722  0.95541285  0.53455867    -0.27200
N20         N  0.43731709  0.93694852  0.53088334    -0.35000
C21         C  0.41352349  0.91989589  0.53764341     0.01200
C22         C  0.37661991  0.92792836  0.54641734     0.07200
C23         C  0.37981089  0.95055219  0.54439241    -0.05900
H24         H  0.42325759  0.90295007  0.53795608     0.07900
H25         H  0.35704839  0.96253330  0.54996631     0.09100
Cu26       Cu  0.49862125  0.93552613  0.52321208     0.44200
Cu27       Cu  0.44289484  0.98584257  0.52594922     0.42000
Cu28       Cu  0.55381108  0.98575443  0.52645355     0.43900
N29         N  0.55986625  0.93688525  0.53117199    -0.34600
N30         N  0.57995404  0.95540434  0.53492956    -0.28800
C31         C  0.61732338  0.95064899  0.54458395    -0.04900
C32         C  0.62077453  0.92803368  0.54643641     0.07300
C33         C  0.58387500  0.91988226  0.53774305     0.01100
H34         H  0.64004008  0.96269546  0.55008728     0.08800
H35         H  0.57435784  0.90289125  0.53788306     0.07800
N36         N  0.51856813  0.01151905  0.51119615    -0.36000
N37         N  0.47856843  0.01155502  0.51098627    -0.28200
C38         C  0.46558889  0.02971252  0.49739624    -0.03400
C39         C  0.49893203  0.04162615  0.48856023     0.05200
C40         C  0.53198104  0.02965072  0.49774907     0.03300
H41         H  0.43418837  0.03354426  0.49339588     0.08400
H42         H  0.56349662  0.03341829  0.49407547     0.07200
N43         N  0.42050801  0.14743603  0.42068994    -0.27200
N44         N  0.44091774  0.16586092  0.42443273    -0.35000
C45         C  0.41766296  0.18294071  0.41700734     0.01200
C46         C  0.38094274  0.17496392  0.40776893     0.07200
C47         C  0.38365154  0.15235154  0.41019600    -0.05900
H48         H  0.42752816  0.19987380  0.41691143     0.07900
H49         H  0.36067123  0.14042781  0.40478456     0.09100
Cu50       Cu  0.50172906  0.16720651  0.43361538     0.44200
Cu51       Cu  0.44518266  0.11701617  0.43082339     0.42000
Cu52       Cu  0.55564684  0.11663864  0.43175935     0.43900
N53         N  0.56266110  0.16526578  0.42506826    -0.34600
N54         N  0.58218381  0.14655253  0.42164470    -0.28800
C55         C  0.61937873  0.15085730  0.41130539    -0.04900
C56         C  0.62327279  0.17339541  0.40864010     0.07300
C57         C  0.58686531  0.18196644  0.41759724     0.01100
H58         H  0.64175893  0.13856616  0.40610946     0.08800
H59         H  0.57786232  0.19903008  0.41722458     0.07800
N60         N  0.51982428  0.09154233  0.44807698    -0.36000
N61         N  0.47983874  0.09162574  0.44773849    -0.28200
C62         C  0.46627316  0.07380140  0.46181283    -0.03400
C63         C  0.49925116  0.06198346  0.47149918     0.05200
C64         C  0.53267334  0.07368596  0.46235963     0.03300
H65         H  0.43471754  0.07003333  0.46531325     0.08400
H66         H  0.56405702  0.06982006  0.46636582     0.07200
C67         C  0.19831669  0.90438310  0.85922268     0.03300
C68         C  0.20986810  0.88552796  0.87465251    -0.12900
C69         C  0.19346133  0.88109945  0.90179884     0.00800
C70         C  0.16519003  0.89577439  0.91334499    -0.11400
C71         C  0.15372183  0.91467911  0.89842379     0.03200
C72         C  0.17084831  0.91916227  0.87168497    -0.10800
H73         H  0.23014753  0.87374918  0.86497361     0.08800
H74         H  0.15200803  0.89259776  0.93413457     0.06400
H75         H  0.16139280  0.93367036  0.86008154     0.06200
C76         C  0.30115287  0.90415001  0.59869509     0.03300
C77         C  0.32831113  0.91886344  0.58564567    -0.12900
C78         C  0.34348369  0.91462956  0.55827795     0.00800
C79         C  0.33046457  0.89602901  0.54340864    -0.11400
C80         C  0.30253037  0.88139640  0.55557478     0.03200
C81         C  0.28794207  0.88561143  0.58328283    -0.10800
H82         H  0.33904386  0.93311061  0.59721504     0.08800
H83         H  0.34227906  0.89302862  0.52218113     0.06400
H84         H  0.26787636  0.87388873  0.59336864     0.06200
N85         N  0.07975719  0.95596223  0.91943965    -0.27200
N86         N  0.05945016  0.93760424  0.92394588    -0.35000
C87         C  0.08337105  0.92039257  0.91834528     0.01200
C88         C  0.12044209  0.92821270  0.90949294     0.07200
C89         C  0.11718902  0.95087031  0.91025316    -0.05900
H90         H  0.07363530  0.90344127  0.91885215     0.07900
H91         H  0.14004634  0.96271343  0.90427023     0.09100
Cu92       Cu  0.99810099  0.93643186  0.93142856     0.44200
Cu93       Cu  0.05401884  0.98655273  0.92652165     0.42000
Cu94       Cu  0.94328954  0.98678904  0.92730274     0.43900
N95         N  0.93677673  0.93785657  0.92391201    -0.34600
N96         N  0.91681001  0.95636260  0.91980397    -0.28800
C97         C  0.87920540  0.95153801  0.91068612    -0.04900
C98         C  0.87547246  0.92890501  0.90957988     0.07300
C99         C  0.91246761  0.92080785  0.91810384     0.01100
H100        H  0.85652336  0.96354733  0.90499925     0.08800
H101        H  0.92183942  0.90380243  0.91831245     0.07800
N102        N  0.97916310  0.01215287  0.94296419    -0.36000
N103        N  0.01915407  0.01205907  0.94263042    -0.28200
C104        C  0.03279710  0.02946961  0.95744383    -0.03400
C105        C  0.99990841  0.04101312  0.96771722     0.05200
C106        C  0.96641352  0.02964638  0.95799455     0.03300
H107        H  0.06435115  0.03286614  0.96153656     0.08400
H108        H  0.93508651  0.03321731  0.96262086     0.07200
N109        N  0.92118406  0.14553211  0.03568012    -0.27200
N110        N  0.94159508  0.16381642  0.03092766    -0.35000
C111        C  0.91818130  0.18112082  0.03709967     0.01200
C112        C  0.88130473  0.17343765  0.04653731     0.07200
C113        C  0.88416251  0.15076304  0.04556566    -0.05900
H114        H  0.92807913  0.19803764  0.03634726     0.07900
H115        H  0.86122841  0.13900585  0.05168474     0.09100
Cu116      Cu  0.00254613  0.16465936  0.02202362     0.44200
Cu117      Cu  0.94636436  0.11489139  0.02776628     0.42000
Cu118      Cu  0.05719050  0.11423658  0.02781131     0.43900
N119        N  0.06372178  0.16318646  0.02992532    -0.34600
N120        N  0.08355296  0.14477347  0.03497524    -0.28800
C121        C  0.12081696  0.14981244  0.04464847    -0.04900
C122        C  0.12444308  0.17248227  0.04511369     0.07300
C123        C  0.08776283  0.18034789  0.03561039     0.01100
H124        H  0.14332088  0.13793654  0.05111028     0.08800
H125        H  0.07831120  0.19732991  0.03471903     0.07800
N126        N  0.02119694  0.08904836  0.01171382    -0.36000
N127        N  0.98119913  0.08932130  0.01168806    -0.28200
C128        C  0.96756497  0.07199374  0.99670243    -0.03400
C129        C  0.00045487  0.06032374  0.98667833     0.05200
C130        C  0.03394728  0.07152739  0.99672641     0.03300
H131        H  0.93603531  0.06872976  0.99234129     0.08400
H132        H  0.06529931  0.06780626  0.99239548     0.07200
C133        C  0.20131479  0.19701800  0.09576650     0.03300
C134        C  0.17412312  0.18202334  0.08331845    -0.12900
C135        C  0.15768758  0.18608855  0.05623889     0.00800
C136        C  0.16964681  0.20476689  0.04097883    -0.11400
C137        C  0.19778471  0.21956829  0.05245952     0.03200
C138        C  0.21342939  0.21558874  0.07992389    -0.10800
H139        H  0.16429199  0.16769713  0.09515666     0.08800
H140        H  0.15694288  0.20769384  0.01997759     0.06400
H141        H  0.23351844  0.22754477  0.08946903     0.06200
C142        C  0.30405901  0.19893629  0.35667517     0.03300
C143        C  0.33190880  0.18428379  0.36907403    -0.12900
C144        C  0.34770282  0.18833854  0.39632623     0.00800
C145        C  0.33477829  0.20671101  0.41168084    -0.11400
C146        C  0.30602337  0.22113314  0.40021174     0.03200
C147        C  0.29075163  0.21713614  0.37266121    -0.10800
H148        H  0.34257978  0.17021918  0.35712708     0.08800
H149        H  0.34711195  0.20966988  0.43278217     0.06400
H150        H  0.26997778  0.22878489  0.36318949     0.06200
C151        C  0.79818672  0.90536009  0.85865452     0.03300
C152        C  0.82615567  0.91985330  0.87117783    -0.12900
C153        C  0.84171122  0.91572466  0.89845416     0.00800
C154        C  0.82806217  0.89751744  0.91393038    -0.11400
C155        C  0.79864976  0.88337876  0.90257129     0.03200
C156        C  0.78413347  0.88728621  0.87472119    -0.10800
H157        H  0.83722874  0.93387411  0.85926207     0.08800
H158        H  0.84106147  0.89415280  0.93473593     0.06400
H159        H  0.76253497  0.87603121  0.86539382     0.06200
C160        C  0.69680853  0.88231473  0.55456885     0.03300
C161        C  0.66769063  0.89647463  0.54288369    -0.12900
C162        C  0.65437251  0.91491354  0.55793494     0.00800
C163        C  0.67021546  0.91936039  0.58504920    -0.11400
C164        C  0.69848222  0.90507582  0.59764589     0.03200
C165        C  0.71219220  0.88677694  0.58200774    -0.10800
H166        H  0.65533049  0.89326791  0.52185678     0.08800
H167        H  0.65923936  0.93345774  0.59679537     0.06400
H168        H  0.73329070  0.87542396  0.59172380     0.06200
N169        N  0.42124327  0.45565349  0.92035065    -0.27200
N170        N  0.44149696  0.43726229  0.92461435    -0.35000
C171        C  0.41794812  0.42008973  0.91791642     0.01200
C172        C  0.38116583  0.42796783  0.90857880     0.07200
C173        C  0.38422171  0.45062528  0.91021904    -0.05900
H174        H  0.42778715  0.40316222  0.91805109     0.07900
H175        H  0.36150564  0.46251594  0.90418866     0.09100
Cu176      Cu  0.50265416  0.43626172  0.93299365     0.44200
Cu177      Cu  0.44702022  0.48619704  0.92859683     0.42000
Cu178      Cu  0.55792559  0.48667505  0.92777443     0.43900
N179        N  0.56381623  0.43773700  0.92475080    -0.34600
N180        N  0.58379080  0.45619313  0.92014791    -0.28800
C181        C  0.62092494  0.45128922  0.91020455    -0.04900
C182        C  0.62432758  0.42865683  0.90902982     0.07300
C183        C  0.58768921  0.42064571  0.91844919     0.01100
H184        H  0.64346917  0.46324295  0.90400506     0.08800
H185        H  0.57816849  0.40365762  0.91890609     0.07800
N186        N  0.52248540  0.51225027  0.94304353    -0.36000
N187        N  0.48248836  0.51207774  0.94343993    -0.28200
C188        C  0.46938942  0.52998583  0.95746180    -0.03400
C189        C  0.50264978  0.54191705  0.96641696     0.05200
C190        C  0.53577305  0.53024913  0.95679081     0.03300
H191        H  0.43798357  0.53355936  0.96181626     0.08400
H192        H  0.56726123  0.53404750  0.96051922     0.07200
N193        N  0.42163263  0.64654571  0.03408043    -0.27200
N194        N  0.44139574  0.66521434  0.03062233    -0.35000
C195        C  0.41709150  0.68200192  0.03742459     0.01200
C196        C  0.38037206  0.67354401  0.04594937     0.07200
C197        C  0.38417480  0.65098636  0.04376527    -0.05900
H198        H  0.42622153  0.69905331  0.03768698     0.07900
H199        H  0.36157066  0.63876747  0.04889107     0.09100
Cu200      Cu  0.50249034  0.66720863  0.02270307     0.44200
Cu201      Cu  0.44779580  0.61641614  0.02480398     0.42000
Cu202      Cu  0.55797288  0.61679188  0.02424093     0.43900
N203        N  0.56349386  0.66558932  0.03108863    -0.34600
N204        N  0.58357867  0.64700369  0.03420789    -0.28800
C205        C  0.62085437  0.65156671  0.04417480    -0.04900
C206        C  0.62420699  0.67411841  0.04688501     0.07300
C207        C  0.58739706  0.68245011  0.03841830     0.01100
H208        H  0.64363285  0.63943241  0.04916988     0.08800
H209        H  0.57793164  0.69943382  0.03904995     0.07800
N210        N  0.52292288  0.59132358  0.00800644    -0.36000
N211        N  0.48294501  0.59118066  0.00831557    -0.28200
C212        C  0.46966897  0.57343946  0.99401621    -0.03400
C213        C  0.50281128  0.56190548  0.98413694     0.05200
C214        C  0.53607089  0.57366512  0.99348051     0.03300
H215        H  0.43817596  0.56964217  0.99029596     0.08400
H216        H  0.56750220  0.57006252  0.98927183     0.07200
C217        C  0.80816221  0.37990159  0.55419706     0.03300
C218        C  0.83681090  0.39437448  0.54261262    -0.12900
C219        C  0.84847434  0.41332112  0.55733887     0.00800
C220        C  0.83146920  0.41787664  0.58410677    -0.11400
C221        C  0.80384713  0.40317468  0.59675029     0.03200
C222        C  0.79187827  0.38438354  0.58132866    -0.10800
H223        H  0.84981017  0.39108391  0.52180433     0.08800
H224        H  0.84094639  0.43246545  0.59548322     0.06400
H225        H  0.77128590  0.37268336  0.59090666     0.06200
C226        C  0.70015285  0.40446196  0.85745748     0.03300
C227        C  0.71423137  0.38651383  0.87365719    -0.12900
C228        C  0.69989583  0.38276841  0.90153908     0.00800
C229        C  0.67131756  0.39723535  0.91313006    -0.11400
C230        C  0.65753409  0.41531804  0.89750511     0.03200
C231        C  0.67237074  0.41908854  0.86990157    -0.10800
H232        H  0.73485398  0.37484906  0.86409860     0.08800
H233        H  0.65969629  0.39451417  0.93449131     0.06400
H234        H  0.66104544  0.43292417  0.85775285     0.06200
C235        C  0.19673238  0.71995305  0.40148782     0.03300
C236        C  0.16841045  0.70504043  0.41254657    -0.12900
C237        C  0.15592550  0.68681809  0.39669740     0.00800
C238        C  0.17221418  0.68316459  0.36952770    -0.11400
C239        C  0.19978459  0.69818883  0.35754888     0.03200
C240        C  0.21231807  0.71638975  0.37389438    -0.10800
H241        H  0.15581106  0.70753740  0.43365828     0.08800
H242        H  0.16197342  0.66915935  0.35725974     0.06400
H243        H  0.23263277  0.72837304  0.36461524     0.06200
C244        C  0.30243145  0.69678891  0.09657653     0.03300
C245        C  0.28839871  0.71471555  0.08030980    -0.12900
C246        C  0.30312727  0.71860201  0.05256507     0.00800
C247        C  0.33237061  0.70439849  0.04127399    -0.11400
C248        C  0.34631776  0.68642522  0.05702237     0.03200
C249        C  0.33082965  0.68239225  0.08437162    -0.10800
H250        H  0.26742816  0.72626557  0.08971223     0.08800
H251        H  0.34439294  0.70721258  0.02004873     0.06400
H252        H  0.34218253  0.66856868  0.09652070     0.06200
C253        C  0.69998502  0.69745894  0.09897184     0.03300
C254        C  0.67183675  0.68316860  0.08628852    -0.12900
C255        C  0.65793501  0.68699159  0.05850971     0.00800
C256        C  0.67313921  0.70472078  0.04285289    -0.11400
C257        C  0.70266662  0.71865022  0.05448462     0.03200
C258        C  0.71576431  0.71498939  0.08272875    -0.10800
H259        H  0.65940797  0.66958601  0.09839990     0.08800
H260        H  0.66116268  0.70790947  0.02169695     0.06400
H261        H  0.73753521  0.72604818  0.09225509     0.06200
C262        C  0.79838461  0.69694362  0.35984948     0.03300
C263        C  0.78619568  0.71564805  0.37526506    -0.12900
C264        C  0.80340630  0.72049713  0.40200399     0.00800
C265        C  0.83298651  0.70640581  0.41319627    -0.11400
C266        C  0.84467511  0.68749294  0.39843467     0.03200
C267        C  0.82687070  0.68260851  0.37207273    -0.10800
H268        H  0.76484487  0.72702278  0.36587260     0.08800
H269        H  0.84680590  0.70999987  0.43365799     0.06400
H270        H  0.83658174  0.66814896  0.36051829     0.06200
N271        N  0.08123995  0.45631558  0.53496155    -0.27200
N272        N  0.06179856  0.43798254  0.52875515    -0.35000
C273        C  0.08542947  0.42073495  0.53483165     0.01200
C274        C  0.12141338  0.42845447  0.54579462     0.07200
C275        C  0.11781189  0.45113001  0.54574223    -0.05900
H276        H  0.07607582  0.40376843  0.53313519     0.07900
H277        H  0.13989310  0.46291120  0.55317241     0.09100
Cu278      Cu  0.00115504  0.43662272  0.51896649     0.44200
Cu279      Cu  0.05530897  0.48696676  0.52783300     0.42000
Cu280      Cu  0.94487917  0.48621341  0.52647206     0.43900
N281        N  0.94038362  0.43717201  0.52850723    -0.34600
N282        N  0.92011431  0.45534097  0.53407079    -0.28800
C283        C  0.88368211  0.44987453  0.54484350    -0.04900
C284        C  0.88100472  0.42717684  0.54558788     0.07300
C285        C  0.91741654  0.41972167  0.53502397     0.01100
H286        H  0.86107276  0.46149734  0.55184019     0.08800
H287        H  0.92747361  0.40285614  0.53389231     0.07800
N288        N  0.97989550  0.51212170  0.51119537    -0.36000
N289        N  0.01988254  0.51239005  0.51169809    -0.28200
C290        C  0.03305376  0.53019661  0.49739113    -0.03400
C291        C  0.99986069  0.54164783  0.48732274     0.05200
C292        C  0.96667734  0.52976847  0.49659014     0.03300
H293        H  0.06452376  0.53401044  0.49360521     0.08400
H294        H  0.93526513  0.53316083  0.49201254     0.07200
N295        N  0.08131109  0.64590015  0.41836911    -0.27200
N296        N  0.06145517  0.66440055  0.42274246    -0.35000
C297        C  0.08547455  0.68144919  0.41646002     0.01200
C298        C  0.12216790  0.67339649  0.40733205     0.07200
C299        C  0.11859576  0.65075614  0.40857853    -0.05900
H300        H  0.07617725  0.69846080  0.41705732     0.07900
H301        H  0.14129011  0.63877537  0.40286332     0.09100
Cu302      Cu  0.00060565  0.66610891  0.43155980     0.44200
Cu303      Cu  0.05543030  0.61549813  0.42714154     0.42000
Cu304      Cu  0.94496898  0.61607262  0.42817263     0.43900
N305        N  0.93936780  0.66499245  0.42402891    -0.34600
N306        N  0.91911248  0.64656222  0.42001986    -0.28800
C307        C  0.88167348  0.65152314  0.41070603    -0.04900
C308        C  0.87837094  0.67417179  0.40936585     0.07300
C309        C  0.91543961  0.68213184  0.41797453     0.01100
H310        H  0.85876162  0.63959576  0.40516129     0.08800
H311        H  0.92510489  0.69909714  0.41814084     0.07800
N312        N  0.98004591  0.59057553  0.44441843    -0.36000
N313        N  0.02003400  0.59038999  0.44411481    -0.28200
C314        C  0.03315508  0.57279853  0.45886718    -0.03400
C315        C  0.99991412  0.56139225  0.46899679     0.05200
C316        C  0.96677097  0.57308754  0.45933257     0.03300
H317        H  0.06461251  0.56903162  0.46274412     0.08400
H318        H  0.93531722  0.56961938  0.46369993     0.07200
C319        C  0.30648126  0.38156760  0.89971736     0.03300
C320        C  0.33505396  0.39594166  0.91164024    -0.12900
C321        C  0.34815709  0.41454447  0.89670302     0.00800
C322        C  0.33265680  0.41890418  0.86942264    -0.11400
C323        C  0.30499196  0.40438479  0.85656095     0.03200
C324        C  0.29156142  0.38593113  0.87211945    -0.10800
H325        H  0.34708475  0.39279469  0.93278488     0.08800
H326        H  0.34339597  0.43314848  0.85780683     0.06400
H327        H  0.27097083  0.37438534  0.86225486     0.06200
C328        C  0.19549482  0.38171635  0.55355265     0.03300
C329        C  0.21173709  0.38606856  0.58073401    -0.12900
C330        C  0.19910155  0.40451002  0.59649760     0.00800
C331        C  0.17098907  0.41907188  0.58423282    -0.11400
C332        C  0.15429244  0.41474961  0.55729689     0.03200
C333        C  0.16646828  0.39605773  0.54221148    -0.10800
H334        H  0.23284928  0.37455326  0.59011542     0.08800
H335        H  0.16094089  0.43332719  0.59606838     0.06400
H336        H  0.15356178  0.39284523  0.52134764     0.06200
C337        C  0.29243750  0.40760827  0.82626454    -0.03200
C338        C  0.25257089  0.40321484  0.81748601    -0.09000
C339        C  0.24156708  0.40519035  0.78870120    -0.16700
C340        C  0.27019614  0.41155857  0.76826224     0.25500
C341        C  0.30976729  0.41624838  0.77683450    -0.18300
C342        C  0.32082962  0.41429649  0.80557839    -0.07200
C343        C  0.25934124  0.41252194  0.73841520    -0.13700
C344        C  0.25004035  0.41251110  0.71345197    -0.13400
C345        C  0.23793908  0.41156624  0.68385034     0.25400
C346        C  0.26587726  0.40582792  0.66265391    -0.18800
C347        C  0.25352184  0.40386311  0.63414205    -0.07300
C348        C  0.21303076  0.40768571  0.62643812    -0.03400
C349        C  0.18533892  0.41372209  0.64785537    -0.08700
C350        C  0.19771659  0.41561868  0.67631584    -0.16300
H351        H  0.22991521  0.39823229  0.83287411     0.11800
H352        H  0.21082407  0.40151807  0.78234392     0.11100
H353        H  0.33227039  0.42107471  0.76122910     0.11100
H354        H  0.35193069  0.41743273  0.81146954     0.11600
H355        H  0.29709839  0.40263193  0.66820553     0.11600
H356        H  0.27558626  0.39934044  0.61811977     0.11600
H357        H  0.15382435  0.41639606  0.64272846     0.11800
H358        H  0.17574211  0.41992181  0.69252110     0.10600
C359        C  0.78423844  0.69343886  0.33006119    -0.03200
C360        C  0.74394623  0.69769155  0.32223072    -0.09000
C361        C  0.73173615  0.69577859  0.29370031    -0.16700
C362        C  0.75962190  0.68961442  0.27269035     0.25500
C363        C  0.79951764  0.68495230  0.28037603    -0.18300
C364        C  0.81177076  0.68684853  0.30881446    -0.07200
C365        C  0.74804804  0.68910571  0.24305364    -0.13700
C366        C  0.73965884  0.68953330  0.21798746    -0.13400
C367        C  0.73009375  0.69089687  0.18803256     0.25400
C368        C  0.76021562  0.69614775  0.16814717    -0.18800
C369        C  0.75064941  0.69812171  0.13912715    -0.07300
C370        C  0.71077457  0.69483598  0.12963360    -0.03400
C371        C  0.68078092  0.68948890  0.14983495    -0.08700
C372        C  0.69040990  0.68752215  0.17879147    -0.16300
H373        H  0.72199842  0.70262374  0.33812437     0.11800
H374        H  0.70075347  0.69944265  0.28796751     0.11100
H375        H  0.82141336  0.68030863  0.26427431     0.11100
H376        H  0.84316517  0.68385299  0.31399947     0.11600
H377        H  0.79105222  0.69882428  0.17509084     0.11600
H378        H  0.77444744  0.70208208  0.12410771     0.11600
H379        H  0.64964988  0.68727148  0.14333990     0.11800
H380        H  0.66680470  0.68360159  0.19400725     0.10600
C381        C  0.21287240  0.69583293  0.32727857    -0.03200
C382        C  0.25267368  0.70087705  0.31893853    -0.09000
C383        C  0.26419140  0.69946506  0.29021062    -0.16700
C384        C  0.23613290  0.69299771  0.26945339     0.25500
C385        C  0.19659403  0.68782239  0.27756278    -0.18300
C386        C  0.18501175  0.68924007  0.30621229    -0.07200
C387        C  0.24753837  0.69207032  0.23976364    -0.13700
C388        C  0.25651887  0.69166788  0.21477973    -0.13400
C389        C  0.26736698  0.69181803  0.18496076     0.25400
C390        C  0.23880886  0.69766427  0.16424090    -0.18800
C391        C  0.24986279  0.69878679  0.13541548    -0.07300
C392        C  0.28973630  0.69412797  0.12690758    -0.03400
C393        C  0.31801804  0.68790865  0.14790067    -0.08700
C394        C  0.30686918  0.68674969  0.17667648    -0.16300
H395        H  0.27490424  0.70584396  0.33462732     0.11800
H396        H  0.29489980  0.70352491  0.28417662     0.11100
H397        H  0.17454749  0.68292626  0.26168132     0.11100
H398        H  0.15393654  0.68567701  0.31175094     0.11600
H399        H  0.20810337  0.70158644  0.17039537     0.11600
H400        H  0.22724814  0.70337380  0.11979886     0.11600
H401        H  0.34912163  0.68458527  0.14223460     0.11800
H402        H  0.32927302  0.68227767  0.19252611     0.10600
C403        C  0.78980747  0.40656688  0.62671020    -0.03200
C404        C  0.81658079  0.41463646  0.64763271    -0.09000
C405        C  0.80444080  0.41646583  0.67615201    -0.16700
C406        C  0.76543264  0.41022071  0.68430924     0.25500
C407        C  0.73829162  0.40256025  0.66364214    -0.18300
C408        C  0.75031756  0.40078511  0.63505200    -0.07200
C409        C  0.75385791  0.41090274  0.71401411    -0.13700
C410        C  0.74478679  0.41080909  0.73900931    -0.13400
C411        C  0.73402050  0.41000379  0.76886198     0.25400
C412        C  0.69428195  0.41430292  0.77735876    -0.18800
C413        C  0.68345701  0.41283699  0.80618720    -0.07300
C414        C  0.71227069  0.40702597  0.82700748    -0.03400
C415        C  0.75223810  0.40291582  0.81828503    -0.08700
C416        C  0.76300637  0.40440977  0.78942000    -0.16300
H417        H  0.84739362  0.41887977  0.64218712     0.11800
H418        H  0.82578675  0.42234020  0.69194948     0.11100
H419        H  0.70797593  0.39770062  0.66967839     0.11100
H420        H  0.72875425  0.39479377  0.61951040     0.11600
H421        H  0.67151805  0.41852761  0.76165239     0.11600
H422        H  0.65228444  0.41571823  0.81208128     0.11600
H423        H  0.77517401  0.39858492  0.83379390     0.11800
H424        H  0.79387641  0.40104529  0.78311586     0.10600
C425        C  0.79141143  0.74043592  0.41814213    -0.03200
C426        C  0.75052161  0.74642397  0.42055649    -0.09000
C427        C  0.73920779  0.76434133  0.43744716    -0.16700
C428        C  0.76860927  0.77653788  0.45199075     0.25500
C429        C  0.80941280  0.77103759  0.44909319    -0.18300
C430        C  0.82076677  0.75314770  0.43227925    -0.07200
C431        C  0.75698523  0.79438877  0.47038175    -0.13700
C432        C  0.74728897  0.80919422  0.48603226    -0.13400
C433        C  0.73471402  0.82691913  0.50432009     0.25400
C434        C  0.76306315  0.83854021  0.52060776    -0.18800
C435        C  0.75074462  0.85627161  0.53751593    -0.07300
C436        C  0.70988901  0.86262428  0.53824158    -0.03400
C437        C  0.68157478  0.85045205  0.52232339    -0.08700
C438        C  0.69393408  0.83280010  0.50546078    -0.16300
H439        H  0.72725098  0.73687129  0.41007580     0.11800
H440        H  0.70751437  0.76846954  0.43951316     0.11100
H441        H  0.83244770  0.78043197  0.46009227     0.11100
H442        H  0.85254497  0.74918992  0.43042464     0.11600
H443        H  0.79473196  0.83409770  0.51992708     0.11600
H444        H  0.77328349  0.86537307  0.54937814     0.11600
H445        H  0.64978552  0.85460485  0.52285611     0.11800
H446        H  0.67168457  0.82384654  0.49311293     0.10600
C447        C  0.78478768  0.86415973  0.91964382    -0.03200
C448        C  0.78004515  0.84337750  0.90698760    -0.09000
C449        C  0.77001500  0.82507780  0.92371285    -0.16700
C450        C  0.76448337  0.82731181  0.95324848     0.25500
C451        C  0.76815598  0.84800693  0.96587455    -0.18300
C452        C  0.77816577  0.86628386  0.94923504    -0.07200
C453        C  0.75587406  0.80838233  0.97076809    -0.13700
C454        C  0.74892440  0.79268807  0.98577015    -0.13400
C455        C  0.73991026  0.77390846  0.00345389     0.25400
C456        C  0.73434341  0.77636964  0.03295066    -0.18800
C457        C  0.72343075  0.75830231  0.04980726    -0.07300
C458        C  0.71788334  0.73751386  0.03732917    -0.03400
C459        C  0.72476559  0.73512285  0.00779944    -0.08700
C460        C  0.73557595  0.75318392  0.99101814    -0.16300
H461        H  0.78533322  0.84113475  0.88435277     0.11800
H462        H  0.76722991  0.80913660  0.91368449     0.11100
H463        H  0.76373521  0.84998555  0.98866352     0.11100
H464        H  0.78099405  0.88210014  0.95956259     0.11600
H465        H  0.73764470  0.79233710  0.04283259     0.11600
H466        H  0.71797570  0.76077318  0.07237795     0.11600
H467        H  0.72140065  0.71928793  0.99760348     0.11800
H468        H  0.74000640  0.75103013  0.96825667     0.10600
C469        C  0.71115997  0.90835922  0.62783795    -0.03200
C470        C  0.68245418  0.91421389  0.64867898    -0.09000
C471        C  0.69368860  0.91645678  0.67731718    -0.16700
C472        C  0.73375250  0.91290690  0.68561536     0.25500
C473        C  0.76267745  0.90731343  0.66502308    -0.18300
C474        C  0.75147147  0.90501152  0.63631928    -0.07200
C475        C  0.74467677  0.91407382  0.71540265    -0.13700
C476        C  0.75328199  0.91406312  0.74047226    -0.13400
C477        C  0.76386394  0.91287845  0.77032415     0.25400
C478        C  0.80342330  0.91739620  0.77901192    -0.18800
C479        C  0.81436653  0.91514981  0.80771441    -0.07300
C480        C  0.78583089  0.90840763  0.82828797    -0.03400
C481        C  0.74598644  0.90411974  0.81937894    -0.08700
C482        C  0.73512235  0.90634147  0.79059495    -0.16300
H483        H  0.65103958  0.91650909  0.64296079     0.11800
H484        H  0.67096532  0.92062089  0.69306227     0.11100
H485        H  0.79378632  0.90448387  0.67119978     0.11100
H486        H  0.77427974  0.90063304  0.62075855     0.11600
H487        H  0.82601632  0.92231455  0.76351924     0.11600
H488        H  0.84548265  0.91817416  0.81365473     0.11600
H489        H  0.72320459  0.89911457  0.83465520     0.11800
H490        H  0.70439485  0.90276224  0.78411139     0.10600
C491        C  0.20818461  0.36210429  0.53701116    -0.03200
C492        C  0.17940144  0.34939387  0.52229345    -0.09000
C493        C  0.19148969  0.33164992  0.50544331    -0.16700
C494        C  0.23246751  0.32635491  0.50303454     0.25500
C495        C  0.26128526  0.33866413  0.51797677    -0.18300
C496        C  0.24923572  0.35639445  0.53493146    -0.07200
C497        C  0.24491332  0.30853938  0.48485398    -0.13700
C498        C  0.25525151  0.29373574  0.46940948    -0.13400
C499        C  0.26800472  0.27601886  0.45117781     0.25400
C500        C  0.30894357  0.27049276  0.44951265    -0.18800
C501        C  0.32136573  0.25292013  0.43250791    -0.07300
C502        C  0.29295747  0.24057715  0.41692191    -0.03400
C503        C  0.25195228  0.24650759  0.41827231    -0.08700
C504        C  0.23956663  0.26409607  0.43536045    -0.16300
H505        H  0.14752218  0.35320018  0.52380812     0.11800
H506        H  0.16889934  0.32218081  0.49409925     0.11100
H507        H  0.29310213  0.33472199  0.51625211     0.11100
H508        H  0.27206848  0.36599293  0.54581706     0.11600
H509        H  0.33125193  0.27967022  0.46152435     0.11600
H510        H  0.35322803  0.24897367  0.43154434     0.11600
H511        H  0.22939498  0.23720044  0.40669418     0.11800
H512        H  0.20778186  0.26823611  0.43648734     0.10600
C513        C  0.20979007  0.23939691  0.03592074    -0.03200
C514        C  0.25033894  0.24631881  0.03511149    -0.09000
C515        C  0.26183288  0.26421364  0.01815100    -0.16700
C516        C  0.23297311  0.27546472  0.00186951     0.25500
C517        C  0.19243872  0.26901908  0.00308507    -0.18300
C518        C  0.18089417  0.25115827  0.01999537    -0.07200
C519        C  0.24496979  0.29331766  0.98346830    -0.13700
C520        C  0.25508613  0.30812342  0.96785390    -0.13400
C521        C  0.26800475  0.32590282  0.94964030     0.25400
C522        C  0.23995182  0.33744580  0.93299644    -0.18800
C523        C  0.25248709  0.35526194  0.91623301    -0.07300
C524        C  0.29328123  0.36180342  0.91598772    -0.03400
C525        C  0.32133126  0.34972494  0.93226854    -0.08700
C526        C  0.30875388  0.33196618  0.94897812    -0.16300
H527        H  0.27331042  0.23753140  0.04696675     0.11800
H528        H  0.29330989  0.26906982  0.01741575     0.11100
H529        H  0.16978051  0.27767251  0.99074271     0.11100
H530        H  0.14931854  0.24652528  0.02057603     0.11600
H531        H  0.20831417  0.33288174  0.93329547     0.11600
H532        H  0.23012593  0.36428449  0.90409819     0.11600
H533        H  0.35307398  0.35403007  0.93212936     0.11800
H534        H  0.33079952  0.32308393  0.96160008     0.10600
C535        C  0.29121859  0.19616846  0.32641744    -0.03200
C536        C  0.25124034  0.20061437  0.31795935    -0.09000
C537        C  0.23992783  0.19898472  0.28921349    -0.16700
C538        C  0.26837649  0.19290816  0.26854184     0.25500
C539        C  0.30808784  0.18826938  0.27678066    -0.18300
C540        C  0.31945759  0.18988522  0.30546886    -0.07200
C541        C  0.25718644  0.19193618  0.23880336    -0.13700
C542        C  0.24823854  0.19160112  0.21380496    -0.13400
C543        C  0.23727626  0.19185845  0.18399682     0.25400
C544        C  0.26509988  0.19888400  0.16338447    -0.18800
C545        C  0.25383308  0.20006761  0.13459409    -0.07300
C546        C  0.21446581  0.19429195  0.12601113    -0.03400
C547        C  0.18695435  0.18691974  0.14689995    -0.08700
C548        C  0.19832073  0.18569974  0.17563156    -0.16300
H549        H  0.22872977  0.20532177  0.33357110     0.11800
H550        H  0.20908247  0.20261778  0.28309015     0.11100
H551        H  0.33042882  0.18367333  0.26096825     0.11100
H552        H  0.35064222  0.18675930  0.31113313     0.11600
H553        H  0.29537560  0.20367165  0.16960069     0.11600
H554        H  0.27587895  0.20557785  0.11906966     0.11600
H555        H  0.15620523  0.18273269  0.14120873     0.11800
H556        H  0.17646697  0.18032082  0.19139502     0.10600
C557        C  0.28988674  0.86147779  0.53947659    -0.03200
C558        C  0.24951390  0.85420748  0.53994972    -0.09000
C559        C  0.23744532  0.83627903  0.52328268    -0.16700
C560        C  0.26555063  0.82538093  0.50600269     0.25500
C561        C  0.30590725  0.83215384  0.50595897    -0.18300
C562        C  0.31803789  0.84998132  0.52261301    -0.07200
C563        C  0.25308707  0.80755941  0.48780419    -0.13700
C564        C  0.24339921  0.79278462  0.47207913    -0.13400
C565        C  0.23163025  0.77508333  0.45345780     0.25400
C566        C  0.26029127  0.76466126  0.43614075    -0.18800
C567        C  0.24892750  0.74698975  0.41879479    -0.07300
C568        C  0.20868537  0.73951221  0.41856840    -0.03400
C569        C  0.17997941  0.75049708  0.43555918    -0.08700
C570        C  0.19142598  0.76806033  0.45292269    -0.16300
H571        H  0.22706899  0.86274814  0.55255183     0.11800
H572        H  0.20610409  0.83114367  0.52353073     0.11100
H573        H  0.32798545  0.82376828  0.49283124     0.11100
H574        H  0.34952674  0.85479331  0.52222476     0.11600
H575        H  0.29151774  0.77000122  0.43633136     0.11600
H576        H  0.27180394  0.73883564  0.40614581     0.11600
H577        H  0.14856702  0.74553859  0.43543904     0.11800
H578        H  0.16891803  0.77608604  0.46606700     0.10600
C579        C  0.20486132  0.86097607  0.91792852    -0.03200
C580        C  0.17568391  0.84932356  0.93378577    -0.09000
C581        C  0.18671000  0.83112867  0.95022514    -0.16700
C582        C  0.22696306  0.82420476  0.95094791     0.25500
C583        C  0.25607770  0.83535453  0.93478315    -0.18300
C584        C  0.24513582  0.85361166  0.91836030    -0.07200
C585        C  0.23851428  0.80594481  0.96870431    -0.13700
C586        C  0.24876514  0.79088743  0.98379225    -0.13400
C587        C  0.26228540  0.77305907  0.00159051     0.25400
C588        C  0.30312113  0.76720715  0.00171157    -0.18800
C589        C  0.31646731  0.74975099  0.01860717    -0.07300
C590        C  0.28907037  0.73777023  0.03557378    -0.03400
C591        C  0.24811677  0.74395897  0.03560012    -0.08700
C592        C  0.23483492  0.76149385  0.01869648    -0.16300
H593        H  0.14427415  0.85425970  0.93348729     0.11800
H594        H  0.16387934  0.82256074  0.96252801     0.11100
H595        H  0.28735024  0.83012220  0.93518624     0.11100
H596        H  0.26835772  0.86229810  0.90660599     0.11600
H597        H  0.32467614  0.77612156  0.98868845     0.11600
H598        H  0.34831173  0.74571304  0.01849296     0.11600
H599        H  0.22623249  0.73495795  0.04821042     0.11800
H600        H  0.20313399  0.76590427  0.01878273     0.10600
C601        C  0.28912925  0.90720490  0.62908206    -0.03200
C602        C  0.31786505  0.91385802  0.64952255    -0.09000
C603        C  0.30730577  0.91569899  0.67835013    -0.16700
C604        C  0.26790906  0.91093491  0.68723377     0.25500
C605        C  0.23894975  0.90456204  0.66704936    -0.18300
C606        C  0.24945601  0.90269096  0.63817538    -0.07200
C607        C  0.25754469  0.91193533  0.71713295    -0.13700
C608        C  0.24865944  0.91207232  0.74215269    -0.13400
C609        C  0.23694509  0.91136883  0.77181614     0.25400
C610        C  0.19740421  0.91674979  0.77966509    -0.18800
C611        C  0.18516184  0.91492733  0.80815413    -0.07300
C612        C  0.21234005  0.90768052  0.82930497    -0.03400
C613        C  0.25226338  0.90266299  0.82129249    -0.08700
C614        C  0.26445057  0.90449786  0.79273590    -0.16300
H615        H  0.34883812  0.91707073  0.64336162     0.11800
H616        H  0.33004716  0.92052670  0.69377003     0.11100
H617        H  0.20833748  0.90083504  0.67366654     0.11100
H618        H  0.22657976  0.89771336  0.62296235     0.11600
H619        H  0.17577550  0.92196702  0.76366237     0.11600
H620        H  0.15404033  0.91854647  0.81345367     0.11600
H621        H  0.27399307  0.89723872  0.83708404     0.11800
H622        H  0.29515810  0.90028644  0.78692424     0.10600
C623        C  0.79585103  0.24015898  0.03664665    -0.03200
C624        C  0.82499185  0.25198471  0.02100544    -0.09000
C625        C  0.81376366  0.26998960  0.00429798    -0.16700
C626        C  0.77331694  0.27651923  0.00302682     0.25500
C627        C  0.74415336  0.26512345  0.01887587    -0.18300
C628        C  0.75532728  0.24706971  0.03562189    -0.07200
C629        C  0.76176977  0.29471155  0.98514046    -0.13700
C630        C  0.75195624  0.30981349  0.96997455    -0.13400
C631        C  0.73906528  0.32777624  0.95215727     0.25400
C632        C  0.69830941  0.33377064  0.95165266    -0.18800
C633        C  0.68555395  0.35141500  0.93486729    -0.07300
C634        C  0.71344608  0.36341632  0.91835295    -0.03400
C635        C  0.75431077  0.35707502  0.91863631    -0.08700
C636        C  0.76703118  0.33937360  0.93548797    -0.16300
H637        H  0.85654807  0.24734950  0.02174174     0.11800
H638        H  0.83662173  0.27874726  0.99224600     0.11100
H639        H  0.71272964  0.27004214  0.01804628     0.11100
H640        H  0.73216950  0.23821236  0.04722707     0.11600
H641        H  0.67636516  0.32484287  0.96433030     0.11600
H642        H  0.65377582  0.35561686  0.93472386     0.11600
H643        H  0.77651771  0.36609113  0.90632892     0.11800
H644        H  0.79868053  0.33486087  0.93570689     0.10600
C645        C  0.79598506  0.36002106  0.53793047    -0.03200
C646        C  0.82504522  0.34770192  0.52296153    -0.09000
C647        C  0.81343968  0.32990950  0.50602468    -0.16700
C648        C  0.77266822  0.32411451  0.50380392     0.25500
C649        C  0.74358096  0.33592226  0.51914867    -0.18300
C650        C  0.75515093  0.35373859  0.53617093    -0.07200
C651        C  0.76075154  0.30635176  0.48531745    -0.13700
C652        C  0.75092071  0.29158703  0.46961617    -0.13400
C653        C  0.73834898  0.27385073  0.45131142     0.25400
C654        C  0.69749662  0.26810808  0.44986451    -0.18800
C655        C  0.68516535  0.25041022  0.43305624    -0.07300
C656        C  0.71356984  0.23808893  0.41747145    -0.03400
C657        C  0.75449793  0.24427915  0.41849578    -0.08700
C658        C  0.76679901  0.26203946  0.43537373    -0.16300
H659        H  0.85678898  0.35189485  0.52426120     0.11800
H660        H  0.83624918  0.32082022  0.49440571     0.11100
H661        H  0.71191492  0.33156974  0.51761692     0.11100
H662        H  0.73208156  0.36299218  0.54727530     0.11600
H663        H  0.67516974  0.27720019  0.46193984     0.11600
H664        H  0.65333285  0.24634519  0.43227453     0.11600
H665        H  0.77706435  0.23504519  0.40686098     0.11800
H666        H  0.79852386  0.26636463  0.43629807     0.10600
C667        C  0.79026296  0.19515880  0.12674744    -0.03200
C668        C  0.81781427  0.18825228  0.14785042    -0.09000
C669        C  0.80598197  0.18668810  0.17644081    -0.16700
C670        C  0.76649759  0.19202470  0.18445245     0.25500
C671        C  0.73869641  0.19872304  0.16363882    -0.18300
C672        C  0.75046177  0.20027886  0.13496936    -0.07200
C673        C  0.75497286  0.19113603  0.21412501    -0.13700
C674        C  0.74606755  0.19082228  0.23912704    -0.13400
C675        C  0.73546712  0.19107408  0.26899207     0.25400
C676        C  0.69583832  0.18643393  0.27744983    -0.18800
C677        C  0.68501325  0.18761278  0.30628363    -0.07300
C678        C  0.71372913  0.19345771  0.32715195    -0.03400
C679        C  0.75368573  0.19773598  0.31847322    -0.08700
C680        C  0.76443976  0.19655639  0.28959248    -0.16300
H681        H  0.84887921  0.18461302  0.14240566     0.11800
H682        H  0.82782802  0.18160564  0.19236863     0.11100
H683        H  0.70802916  0.20290339  0.16959361     0.11100
H684        H  0.72845202  0.20547557  0.11924613     0.11600
H685        H  0.67311183  0.18226247  0.26169712     0.11600
H686        H  0.65384458  0.18460473  0.31211063     0.11600
H687        H  0.77657517  0.20207707  0.33400569     0.11800
H688        H  0.79524087  0.20015510  0.28330121     0.10600
loop_ 
_geom_bond_atom_site_label_1 
_geom_bond_atom_site_label_2 
_geom_bond_distance 
_geom_bond_site_symmetry_2 
_ccdc_geom_bond_type 
C1            C2   1.406       .  A
C1            C6   1.402       .  A
C1          C656   1.486       .  S
C2            C3   1.410       .  A
C2            H7   1.083       .  S
C3            C4   1.409       .  A
C3          C678   1.489       .  S
C4            C5   1.401       .  A
C4            H8   1.083       .  S
C5            C6   1.398       .  A
C5           C56   1.470       .  S
C6            H9   1.084       .  S
C10          C11   1.408       .  A
C10          C15   1.409       .  A
C10         C667   1.489       .  S
C11          C12   1.400       .  A
C11          H16   1.083       .  S
C12          C13   1.399       .  A
C12         C112   1.472       .  S
C13          C14   1.404       .  A
C13          H17   1.084       .  S
C14          C15   1.407       .  A
C14         C623   1.487       .  S
C15          H18   1.083       .  S
N19          N20   1.322       .  A
N19          C23   1.349       .  A
N19         Cu27   2.080       .  S
N20          C21   1.341       .  A
N20         Cu26   2.063       .  S
C21          C22   1.379       .  A
C21          H24   1.082       .  S
C22          C23   1.386       .  A
C22          C78   1.472       .  S
C23          H25   1.082       .  S
Cu26         N29   2.063       .  S
Cu27         N37   2.082   1_565  S
Cu28         N30   2.080       .  S
Cu28         N36   2.082   1_565  S
N29          N30   1.321       .  A
N29          C33   1.342       .  A
N30          C31   1.348       .  A
C31          C32   1.386       .  A
C31          H34   1.082       .  S
C32          C33   1.380       .  A
C32         C162   1.472       .  S
C33          H35   1.082       .  S
N36          N37   1.324       .  A
N36          C40   1.346       .  A
N37          C38   1.346       .  A
C38          C39   1.384       .  A
C38          H41   1.082       .  S
C39          C40   1.384       .  A
C39          C63   1.475       .  S
C40          H42   1.082       .  S
N43          N44   1.322       .  A
N43          C47   1.349       .  A
N43         Cu51   2.081       .  S
N44          C45   1.341       .  A
N44         Cu50   2.060       .  S
C45          C46   1.378       .  A
C45          H48   1.082       .  S
C46          C47   1.386       .  A
C46         C144   1.470       .  S
C47          H49   1.082       .  S
Cu50         N53   2.060       .  S
Cu51         N61   2.082       .  S
Cu52         N54   2.077       .  S
Cu52         N60   2.079       .  S
N53          N54   1.321       .  A
N53          C57   1.341       .  A
N54          C55   1.348       .  A
C55          C56   1.385       .  A
C55          H58   1.082       .  S
C56          C57   1.379       .  A
C57          H59   1.082       .  S
N60          N61   1.324       .  A
N60          C64   1.346       .  A
N61          C62   1.346       .  A
C62          C63   1.384       .  A
C62          H65   1.082       .  S
C63          C64   1.383       .  A
C64          H66   1.082       .  S
C67          C68   1.409       .  A
C67          C72   1.407       .  A
C67         C612   1.489       .  S
C68          C69   1.408       .  A
C68          H73   1.083       .  S
C69          C70   1.404       .  A
C69         C579   1.488       .  S
C70          C71   1.399       .  A
C70          H74   1.084       .  S
C71          C72   1.400       .  A
C71          C88   1.471       .  S
C72          H75   1.083       .  S
C76          C77   1.408       .  A
C76          C81   1.410       .  A
C76         C601   1.489       .  S
C77          C78   1.400       .  A
C77          H82   1.084       .  S
C78          C79   1.399       .  A
C79          C80   1.404       .  A
C79          H83   1.084       .  S
C80          C81   1.408       .  A
C80         C557   1.489       .  S
C81          H84   1.083       .  S
N85          N86   1.321       .  A
N85          C89   1.348       .  A
N85         Cu93   2.077       .  S
N86          C87   1.341       .  A
N86         Cu92   2.062   1_455  S
C87          C88   1.380       .  A
C87          H90   1.082       .  S
C88          C89   1.386       .  A
C89          H91   1.082       .  S
Cu92         N95   2.062       .  S
Cu93        N103   2.079   1_565  S
Cu94         N96   2.081       .  S
Cu94        N102   2.082   1_565  S
N95          N96   1.322       .  A
N95          C99   1.342       .  A
N96          C97   1.348       .  A
C97          C98   1.386       .  A
C97         H100   1.082       .  S
C98          C99   1.379       .  A
C98         C153   1.471       .  S
C99         H101   1.082       .  S
N102        N103   1.324   1_655  A
N102        C106   1.346       .  A
N103        C104   1.346       .  A
C104        C105   1.383   1_455  A
C104        H107   1.082       .  S
C105        C106   1.384       .  A
C105        C129   1.475   1_655  S
C106        H108   1.082       .  S
N109        N110   1.321       .  A
N109        C113   1.349       .  A
N109       Cu117   2.079       .  S
N110        C111   1.341       .  A
N110       Cu116   2.061   1_655  S
C111        C112   1.379       .  A
C111        H114   1.082       .  S
C112        C113   1.386       .  A
C113        H115   1.082       .  S
Cu116       N119   2.060       .  S
Cu117       N127   2.081       .  S
Cu118       N120   2.082       .  S
Cu118       N126   2.084       .  S
N119        N120   1.322       .  A
N119        C123   1.341       .  A
N120        C121   1.349       .  A
C121        C122   1.387       .  A
C121        H124   1.082       .  S
C122        C123   1.379       .  A
C122        C135   1.473       .  S
C123        H125   1.082       .  S
N126        N127   1.324   1_455  A
N126        C130   1.347   1_554  A
N127        C128   1.346   1_554  A
C128        C129   1.383   1_655  A
C128        H131   1.082       .  S
C129        C130   1.384       .  A
C130        H132   1.082       .  S
C133        C134   1.409       .  A
C133        C138   1.410       .  A
C133        C546   1.490       .  S
C134        C135   1.401       .  A
C134        H139   1.083       .  S
C135        C136   1.400       .  A
C136        C137   1.403       .  A
C136        H140   1.084       .  S
C137        C138   1.407       .  A
C137        C513   1.488       .  S
C138        H141   1.083       .  S
C142        C143   1.408       .  A
C142        C147   1.410       .  A
C142        C535   1.488       .  S
C143        C144   1.401       .  A
C143        H148   1.083       .  S
C144        C145   1.399       .  A
C145        C146   1.402       .  A
C145        H149   1.084       .  S
C146        C147   1.406       .  A
C146        C502   1.485       .  S
C147        H150   1.083       .  S
C151        C152   1.407       .  A
C151        C156   1.411       .  A
C151        C480   1.490       .  S
C152        C153   1.399       .  A
C152        H157   1.083       .  S
C153        C154   1.399       .  A
C154        C155   1.405       .  A
C154        H158   1.084       .  S
C155        C156   1.409       .  A
C155        C447   1.489       .  S
C156        H159   1.083       .  S
C160        C161   1.405       .  A
C160        C165   1.408       .  A
C160        C436   1.488       .  S
C161        C162   1.399       .  A
C161        H166   1.084       .  S
C162        C163   1.400       .  A
C163        C164   1.407       .  A
C163        H167   1.084       .  S
C164        C165   1.410       .  A
C164        C469   1.488       .  S
C165        H168   1.083       .  S
N169        N170   1.321       .  A
N169        C173   1.349       .  A
N169       Cu177   2.084       .  S
N170        C171   1.342       .  A
N170       Cu176   2.063       .  S
C171        C172   1.380       .  A
C171        H174   1.082       .  S
C172        C173   1.387       .  A
C172        C321   1.474       .  S
C173        H175   1.082       .  S
Cu176       N179   2.063       .  S
Cu177       N187   2.085       .  S
Cu178       N180   2.077       .  S
Cu178       N186   2.079       .  S
N179        N180   1.322       .  A
N179        C183   1.341       .  A
N180        C181   1.348       .  A
C181        C182   1.385       .  A
C181        H184   1.082       .  S
C182        C183   1.379       .  A
C182        C230   1.471       .  S
C183        H185   1.082       .  S
N186        N187   1.324       .  A
N186        C190   1.346       .  A
N187        C188   1.346       .  A
C188        C189   1.384       .  A
C188        H191   1.082       .  S
C189        C190   1.383       .  A
C189        C213   1.475       .  S
C190        H192   1.082       .  S
N193        N194   1.322       .  A
N193        C197   1.348       .  A
N193       Cu201   2.077       .  S
N194        C195   1.341       .  A
N194       Cu200   2.059       .  S
C195        C196   1.379       .  A
C195        H198   1.082       .  S
C196        C197   1.385       .  A
C196        C248   1.469       .  S
C197        H199   1.082       .  S
Cu200       N203   2.059       .  S
Cu201       N211   2.079       .  S
Cu202       N204   2.080       .  S
Cu202       N210   2.081       .  S
N203        N204   1.322       .  A
N203        C207   1.341       .  A
N204        C205   1.348       .  A
C205        C206   1.385       .  A
C205        H208   1.082       .  S
C206        C207   1.378       .  A
C206        C255   1.469       .  S
C207        H209   1.082       .  S
N210        N211   1.323       .  A
N210        C214   1.346   1_554  A
N211        C212   1.346   1_554  A
C212        C213   1.383       .  A
C212        H215   1.082       .  S
C213        C214   1.384       .  A
C214        H216   1.082       .  S
C217        C218   1.403       .  A
C217        C222   1.407       .  A
C217        C645   1.487       .  S
C218        C219   1.400       .  A
C218        H223   1.084       .  S
C219        C220   1.402       .  A
C219        C284   1.474       .  S
C220        C221   1.409       .  A
C220        H224   1.083       .  S
C221        C222   1.411       .  A
C221        C403   1.492       .  S
C222        H225   1.083       .  S
C226        C227   1.410       .  A
C226        C231   1.408       .  A
C226        C414   1.489       .  S
C227        C228   1.407       .  A
C227        H232   1.083       .  S
C228        C229   1.403       .  A
C228        C634   1.487       .  S
C229        C230   1.399       .  A
C229        H233   1.084       .  S
C230        C231   1.401       .  A
C231        H234   1.084       .  S
C235        C236   1.404       .  A
C235        C240   1.408       .  A
C235        C568   1.489       .  S
C236        C237   1.398       .  A
C236        H241   1.084       .  S
C237        C238   1.399       .  A
C237        C298   1.471       .  S
C238        C239   1.408       .  A
C238        H242   1.083       .  S
C239        C240   1.410       .  A
C239        C381   1.489       .  S
C240        H243   1.083       .  S
C244        C245   1.410       .  A
C244        C249   1.408       .  A
C244        C392   1.489       .  S
C245        C246   1.407       .  A
C245        H250   1.083       .  S
C246        C247   1.403       .  A
C246        C590   1.487       .  S
C247        C248   1.398       .  A
C247        H251   1.084       .  S
C248        C249   1.400       .  A
C249        H252   1.083       .  S
C253        C254   1.407       .  A
C253        C258   1.410       .  A
C253        C370   1.487       .  S
C254        C255   1.398       .  A
C254        H259   1.084       .  S
C255        C256   1.398       .  A
C256        C257   1.404       .  A
C256        H260   1.084       .  S
C257        C258   1.409       .  A
C257        C458   1.489       .  S
C258        H261   1.083       .  S
C262        C263   1.409       .  A
C262        C267   1.407       .  A
C262        C359   1.486       .  S
C263        C264   1.407       .  A
C263        H268   1.083       .  S
C264        C265   1.404       .  A
C264        C425   1.486       .  S
C265        C266   1.399       .  A
C265        H269   1.084       .  S
C266        C267   1.400       .  A
C266        C308   1.471       .  S
C267        H270   1.084       .  S
N271        N272   1.322       .  A
N271        C275   1.349       .  A
N271       Cu279   2.083       .  S
N272        C273   1.341       .  A
N272       Cu278   2.061       .  S
C273        C274   1.379       .  A
C273        H276   1.082       .  S
C274        C275   1.387       .  A
C274        C332   1.474       .  S
C275        H277   1.082       .  S
Cu278       N281   2.061   1_455  S
Cu279       N289   2.085       .  S
Cu280       N282   2.082       .  S
Cu280       N288   2.084       .  S
N281        N282   1.321       .  A
N281        C285   1.342       .  A
N282        C283   1.349       .  A
C283        C284   1.386       .  A
C283        H286   1.082       .  S
C284        C285   1.380       .  A
C285        H287   1.082       .  S
N288        N289   1.324   1_655  A
N288        C292   1.347       .  A
N289        C290   1.347       .  A
C290        C291   1.384   1_455  A
C290        H293   1.082       .  S
C291        C292   1.384       .  A
C291        C315   1.477       .  S
C292        H294   1.082       .  S
N295        N296   1.322       .  A
N295        C299   1.349       .  A
N295       Cu303   2.081       .  S
N296        C297   1.340       .  A
N296       Cu302   2.059       .  S
C297        C298   1.378       .  A
C297        H300   1.082       .  S
C298        C299   1.386       .  A
C299        H301   1.082       .  S
Cu302       N305   2.058   1_455  S
Cu303       N313   2.083       .  S
Cu304       N306   2.081       .  S
Cu304       N312   2.083       .  S
N305        N306   1.321       .  A
N305        C309   1.341       .  A
N306        C307   1.348       .  A
C307        C308   1.386       .  A
C307        H310   1.082       .  S
C308        C309   1.379       .  A
C309        H311   1.082       .  S
N312        N313   1.324   1_655  A
N312        C316   1.347       .  A
N313        C314   1.347       .  A
C314        C315   1.384   1_455  A
C314        H317   1.082       .  S
C315        C316   1.384       .  A
C316        H318   1.082       .  S
C319        C320   1.405       .  A
C319        C324   1.408       .  A
C319        C524   1.489       .  S
C320        C321   1.400       .  A
C320        H325   1.084       .  S
C321        C322   1.401       .  A
C322        C323   1.409       .  A
C322        H326   1.083       .  S
C323        C324   1.411       .  A
C323        C337   1.490       .  S
C324        H327   1.083       .  S
C328        C329   1.407       .  A
C328        C333   1.403       .  A
C328        C491   1.486       .  S
C329        C330   1.409       .  A
C329        H334   1.083       .  S
C330        C331   1.408       .  A
C330        C348   1.488       .  S
C331        C332   1.402       .  A
C331        H335   1.084       .  S
C332        C333   1.401       .  A
C333        H336   1.084       .  S
C337        C338   1.408       .  A
C337        C342   1.409       .  A
C338        C339   1.401       .  A
C338        H351   1.083       .  S
C339        C340   1.401       .  A
C339        H352   1.083       .  S
C340        C341   1.399       .  A
C340        C343   1.444       .  S
C341        C342   1.399       .  A
C341        H353   1.084       .  S
C342        H354   1.083       .  S
C343        C344   1.208       .  T
C344        C345   1.443       .  S
C345        C346   1.401       .  A
C345        C350   1.399       .  A
C346        C347   1.401       .  A
C346        H355   1.083       .  S
C347        C348   1.407       .  A
C347        H356   1.083       .  S
C348        C349   1.408       .  A
C349        C350   1.399       .  A
C349        H357   1.083       .  S
C350        H358   1.084       .  S
C359        C360   1.407       .  A
C359        C364   1.408       .  A
C360        C361   1.400       .  A
C360        H373   1.083       .  S
C361        C362   1.401       .  A
C361        H374   1.083       .  S
C362        C363   1.398       .  A
C362        C365   1.439       .  S
C363        C364   1.396       .  A
C363        H375   1.084       .  S
C364        H376   1.083       .  S
C365        C366   1.206       .  T
C366        C367   1.440       .  S
C367        C368   1.401       .  A
C367        C372   1.398       .  A
C368        C369   1.400       .  A
C368        H377   1.083       .  S
C369        C370   1.407       .  A
C369        H378   1.083       .  S
C370        C371   1.409       .  A
C371        C372   1.397       .  A
C371        H379   1.083       .  S
C372        H380   1.084       .  S
C381        C382   1.408       .  A
C381        C386   1.409       .  A
C382        C383   1.400       .  A
C382        H395   1.083       .  S
C383        C384   1.401       .  A
C383        H396   1.083       .  S
C384        C385   1.398       .  A
C384        C387   1.441       .  S
C385        C386   1.398       .  A
C385        H397   1.084       .  S
C386        H398   1.083       .  S
C387        C388   1.207       .  T
C388        C389   1.441       .  S
C389        C390   1.400       .  A
C389        C394   1.399       .  A
C390        C391   1.400       .  A
C390        H399   1.083       .  S
C391        C392   1.408       .  A
C391        H400   1.083       .  S
C392        C393   1.409       .  A
C393        C394   1.398       .  A
C393        H401   1.083       .  S
C394        H402   1.084       .  S
C403        C404   1.409       .  A
C403        C408   1.409       .  A
C404        C405   1.399       .  A
C404        H417   1.082       .  S
C405        C406   1.399       .  A
C405        H418   1.084       .  S
C406        C407   1.400       .  A
C406        C409   1.443       .  S
C407        C408   1.401       .  A
C407        H419   1.083       .  S
C408        H420   1.083       .  S
C409        C410   1.208       .  T
C410        C411   1.443       .  S
C411        C412   1.399       .  A
C411        C416   1.401       .  A
C412        C413   1.399       .  A
C412        H421   1.084       .  S
C413        C414   1.409       .  A
C413        H422   1.083       .  S
C414        C415   1.407       .  A
C415        C416   1.400       .  A
C415        H423   1.083       .  S
C416        H424   1.083       .  S
C425        C426   1.407       .  A
C425        C430   1.408       .  A
C426        C427   1.400       .  A
C426        H439   1.083       .  S
C427        C428   1.401       .  A
C427        H440   1.083       .  S
C428        C429   1.399       .  A
C428        C431   1.441       .  S
C429        C430   1.397       .  A
C429        H441   1.084       .  S
C430        H442   1.083       .  S
C431        C432   1.207       .  T
C432        C433   1.441       .  S
C433        C434   1.401       .  A
C433        C438   1.398       .  A
C434        C435   1.401       .  A
C434        H443   1.083       .  S
C435        C436   1.407       .  A
C435        H444   1.083       .  S
C436        C437   1.409       .  A
C437        C438   1.397       .  A
C437        H445   1.083       .  S
C438        H446   1.084       .  S
C447        C448   1.408       .  A
C447        C452   1.408       .  A
C448        C449   1.401       .  A
C448        H461   1.083       .  S
C449        C450   1.401       .  A
C449        H462   1.083       .  S
C450        C451   1.399       .  A
C450        C453   1.443       .  S
C451        C452   1.398       .  A
C451        H463   1.084       .  S
C452        H464   1.083       .  S
C453        C454   1.208       .  T
C454        C455   1.443   1_556  S
C455        C456   1.401       .  A
C455        C460   1.399   1_554  A
C456        C457   1.401       .  A
C456        H465   1.083       .  S
C457        C458   1.408       .  A
C457        H466   1.083       .  S
C458        C459   1.409       .  A
C459        C460   1.398   1_554  A
C459        H467   1.083   1_554  S
C460        H468   1.084       .  S
C469        C470   1.408       .  A
C469        C474   1.407       .  A
C470        C471   1.398       .  A
C470        H483   1.083       .  S
C471        C472   1.399       .  A
C471        H484   1.084       .  S
C472        C473   1.401       .  A
C472        C475   1.442       .  S
C473        C474   1.401       .  A
C473        H485   1.083       .  S
C474        H486   1.083       .  S
C475        C476   1.207       .  T
C476        C477   1.442       .  S
C477        C478   1.398       .  A
C477        C482   1.401       .  A
C478        C479   1.398       .  A
C478        H487   1.084       .  S
C479        C480   1.410       .  A
C479        H488   1.083       .  S
C480        C481   1.408       .  A
C481        C482   1.401       .  A
C481        H489   1.083       .  S
C482        H490   1.083       .  S
C491        C492   1.408       .  A
C491        C496   1.406       .  A
C492        C493   1.398       .  A
C492        H505   1.083       .  S
C493        C494   1.399       .  A
C493        H506   1.084       .  S
C494        C495   1.401       .  A
C494        C497   1.441       .  S
C495        C496   1.400       .  A
C495        H507   1.083       .  S
C496        H508   1.083       .  S
C497        C498   1.207       .  T
C498        C499   1.441       .  S
C499        C500   1.399       .  A
C499        C504   1.401       .  A
C500        C501   1.397       .  A
C500        H509   1.084       .  S
C501        C502   1.408       .  A
C501        H510   1.083       .  S
C502        C503   1.406       .  A
C503        C504   1.400       .  A
C503        H511   1.083       .  S
C504        H512   1.083       .  S
C513        C514   1.407       .  A
C513        C518   1.408       .  A
C514        C515   1.401       .  A
C514        H527   1.083       .  S
C515        C516   1.401       .  A
C515        H528   1.083       .  S
C516        C517   1.399       .  A
C516        C519   1.442   1_554  S
C517        C518   1.398       .  A
C517        H529   1.084   1_554  S
C518        H530   1.083       .  S
C519        C520   1.208       .  T
C520        C521   1.442       .  S
C521        C522   1.401       .  A
C521        C526   1.399       .  A
C522        C523   1.401       .  A
C522        H531   1.083       .  S
C523        C524   1.408       .  A
C523        H532   1.083       .  S
C524        C525   1.409       .  A
C525        C526   1.398       .  A
C525        H533   1.083       .  S
C526        H534   1.084       .  S
C535        C536   1.408       .  A
C535        C540   1.408       .  A
C536        C537   1.400       .  A
C536        H549   1.083       .  S
C537        C538   1.401       .  A
C537        H550   1.083       .  S
C538        C539   1.399       .  A
C538        C541   1.442       .  S
C539        C540   1.398       .  A
C539        H551   1.084       .  S
C540        H552   1.083       .  S
C541        C542   1.207       .  T
C542        C543   1.442       .  S
C543        C544   1.400       .  A
C543        C548   1.399       .  A
C544        C545   1.400       .  A
C544        H553   1.083       .  S
C545        C546   1.408       .  A
C545        H554   1.083       .  S
C546        C547   1.409       .  A
C547        C548   1.398       .  A
C547        H555   1.082       .  S
C548        H556   1.084       .  S
C557        C558   1.408       .  A
C557        C562   1.409       .  A
C558        C559   1.401       .  A
C558        H571   1.083       .  S
C559        C560   1.401       .  A
C559        H572   1.083       .  S
C560        C561   1.398       .  A
C560        C563   1.441       .  S
C561        C562   1.397       .  A
C561        H573   1.084       .  S
C562        H574   1.083       .  S
C563        C564   1.207       .  T
C564        C565   1.441       .  S
C565        C566   1.401       .  A
C565        C570   1.398       .  A
C566        C567   1.401       .  A
C566        H575   1.083       .  S
C567        C568   1.408       .  A
C567        H576   1.083       .  S
C568        C569   1.409       .  A
C569        C570   1.397       .  A
C569        H577   1.083       .  S
C570        H578   1.084       .  S
C579        C580   1.409       .  A
C579        C584   1.407       .  A
C580        C581   1.398       .  A
C580        H593   1.083       .  S
C581        C582   1.398       .  A
C581        H594   1.084       .  S
C582        C583   1.400       .  A
C582        C585   1.440       .  S
C583        C584   1.399       .  A
C583        H595   1.084       .  S
C584        H596   1.083       .  S
C585        C586   1.206       .  T
C586        C587   1.440   1_556  S
C587        C588   1.398       .  A
C587        C592   1.400       .  A
C588        C589   1.397       .  A
C588        H597   1.084   1_554  S
C589        C590   1.408       .  A
C589        H598   1.083       .  S
C590        C591   1.407       .  A
C591        C592   1.400       .  A
C591        H599   1.083       .  S
C592        H600   1.083       .  S
C601        C602   1.409       .  A
C601        C606   1.407       .  A
C602        C603   1.399       .  A
C602        H615   1.083       .  S
C603        C604   1.399       .  A
C603        H616   1.084       .  S
C604        C605   1.401       .  A
C604        C607   1.442       .  S
C605        C606   1.400       .  A
C605        H617   1.083       .  S
C606        H618   1.083       .  S
C607        C608   1.207       .  T
C608        C609   1.442       .  S
C609        C610   1.399       .  A
C609        C614   1.401       .  A
C610        C611   1.398       .  A
C610        H619   1.084       .  S
C611        C612   1.408       .  A
C611        H620   1.083       .  S
C612        C613   1.408       .  A
C613        C614   1.400       .  A
C613        H621   1.083       .  S
C614        H622   1.083       .  S
C623        C624   1.408       .  A
C623        C628   1.407       .  A
C624        C625   1.397       .  A
C624        H637   1.083       .  S
C625        C626   1.398       .  A
C625        H638   1.084   1_554  S
C626        C627   1.401       .  A
C626        C629   1.440   1_554  S
C627        C628   1.400       .  A
C627        H639   1.083       .  S
C628        H640   1.083       .  S
C629        C630   1.206       .  T
C630        C631   1.440       .  S
C631        C632   1.398       .  A
C631        C636   1.401       .  A
C632        C633   1.397       .  A
C632        H641   1.084       .  S
C633        C634   1.408       .  A
C633        H642   1.083       .  S
C634        C635   1.407       .  A
C635        C636   1.401       .  A
C635        H643   1.083       .  S
C636        H644   1.083       .  S
C645        C646   1.408       .  A
C645        C650   1.407       .  A
C646        C647   1.398       .  A
C646        H659   1.083       .  S
C647        C648   1.399       .  A
C647        H660   1.084       .  S
C648        C649   1.401       .  A
C648        C651   1.441       .  S
C649        C650   1.401       .  A
C649        H661   1.083       .  S
C650        H662   1.083       .  S
C651        C652   1.207       .  T
C652        C653   1.441       .  S
C653        C654   1.398       .  A
C653        C658   1.401       .  A
C654        C655   1.397       .  A
C654        H663   1.084       .  S
C655        C656   1.408       .  A
C655        H664   1.083       .  S
C656        C657   1.407       .  A
C657        C658   1.401       .  A
C657        H665   1.083       .  S
C658        H666   1.083       .  S
C667        C668   1.408       .  A
C667        C672   1.408       .  A
C668        C669   1.397       .  A
C668        H681   1.083       .  S
C669        C670   1.398       .  A
C669        H682   1.084       .  S
C670        C671   1.401       .  A
C670        C673   1.441       .  S
C671        C672   1.400       .  A
C671        H683   1.083       .  S
C672        H684   1.083       .  S
C673        C674   1.207       .  T
C674        C675   1.441       .  S
C675        C676   1.399       .  A
C675        C680   1.400       .  A
C676        C677   1.398       .  A
C676        H685   1.084       .  S
C677        C678   1.409       .  A
C677        H686   1.083       .  S
C678        C679   1.408       .  A
C679        C680   1.400       .  A
C679        H687   1.083       .  S
C680        H688   1.083       .  S
