geometry optimzed in LAMMPS
_audit_creation_date              2020-11-30 
_audit_creation_method            'lammps2cif' 
_symmetry_space_group_name_H-M    'P1' 
_symmetry_Int_Tables_number       1 
_symmetry_cell_setting            triclinic 
loop_ 
_symmetry_equiv_pos_as_xyz 
  x,y,z 
_cell_length_a                    69.7806175 
_cell_length_b                    59.85510746854847 
_cell_length_c                    44.037894936074565 
_cell_angle_alpha                 89.86395000292359 
_cell_angle_beta                  89.878743858666 
_cell_angle_gamma                 90.00176961365958 
loop_ 
_atom_site_label 
_atom_site_type_symbol 
_atom_site_fract_x 
_atom_site_fract_y 
_atom_site_fract_z 
_atom_site_charge 
N1          N  0.19638882  0.12257042  0.39030596    -0.26000
N2          N  0.19878177  0.13040814  0.41809259    -0.33900
C3          C  0.19078701  0.11617334  0.43809037     0.02300
C4          C  0.18265585  0.09877083  0.42214693     0.08300
C5          C  0.18643039  0.10331994  0.39186934    -0.04800
H6          H  0.19078474  0.11842039  0.46246529     0.09000
H7          H  0.18279618  0.09305042  0.37253643     0.10200
Cu8        Cu  0.21239488  0.16032603  0.42775108     0.44200
Cu9        Cu  0.20830421  0.13762472  0.35209415     0.42000
Cu10       Cu  0.23409183  0.18986731  0.36533324     0.43900
N11         N  0.22548040  0.19122158  0.43218312    -0.33400
N12         N  0.23346445  0.20214693  0.40928808    -0.27700
C13         C  0.24068302  0.22155650  0.41958526    -0.03800
C14         C  0.23697104  0.22277847  0.45034066     0.08400
C15         C  0.22734716  0.20337193  0.45765160     0.02200
H16         H  0.24808900  0.23377888  0.40572937     0.09900
H17         H  0.22212327  0.19839273  0.47980878     0.09000
N18         N  0.23314802  0.17356647  0.32389510    -0.34900
N19         N  0.22381239  0.15466279  0.31898297    -0.27100
C20         C  0.22680598  0.14827130  0.29006859    -0.02300
C21         C  0.23849628  0.16393396  0.27635118     0.06300
C22         C  0.24227464  0.17970825  0.29827825     0.04400
H23         H  0.22119600  0.13314763  0.28003090     0.09500
H24         H  0.25128302  0.19433517  0.29602430     0.08300
N25         N  0.31569855  0.12651974  0.08760902    -0.26000
N26         N  0.31754542  0.13567941  0.06038556    -0.33900
C27         C  0.33072898  0.12411607  0.04450351     0.02300
C28         C  0.33721048  0.10665537  0.06236613     0.08300
C29         C  0.32738332  0.10869844  0.08956294    -0.04800
H30         H  0.33479857  0.12768253  0.02127371     0.09000
H31         H  0.32861643  0.09805781  0.10935077     0.10200
Cu32       Cu  0.30081046  0.16224096  0.04508434     0.44200
Cu33       Cu  0.29744983  0.13847253  0.12112687     0.42000
Cu34       Cu  0.26662608  0.18403294  0.09962728     0.43900
N35         N  0.28064672  0.18681351  0.03488389    -0.33400
N36         N  0.26816762  0.19456712  0.05492467    -0.27700
C37         C  0.25703883  0.21003462  0.04153371    -0.03800
C38         C  0.26277327  0.21208395  0.01170058     0.08400
C39         C  0.27774840  0.19720384  0.00810321     0.02200
H40         H  0.24569889  0.21917992  0.05278543     0.09900
H41         H  0.28596989  0.19420264  0.98765622     0.09000
N42         N  0.26715838  0.17052051  0.14288100    -0.34900
N43         N  0.27843548  0.15374962  0.15083366    -0.27100
C44         C  0.27514695  0.14861956  0.18015241    -0.02300
C45         C  0.26114286  0.16284158  0.19092088     0.06300
C46         C  0.25637754  0.17652334  0.16686420     0.04400
H47         H  0.28230055  0.13542270  0.19255618     0.09500
H48         H  0.24577147  0.18970922  0.16666165     0.08300
N49         N  0.69718588  0.13501417  0.09872707    -0.26000
N50         N  0.70225770  0.14026525  0.07063972    -0.33900
C51         C  0.69440047  0.12550534  0.05136499     0.02300
C52         C  0.68365725  0.11042289  0.06797036     0.08300
C53         C  0.68568276  0.11694577  0.09796115    -0.04800
H54         H  0.69671704  0.12545070  0.02706069     0.09000
H55         H  0.68018139  0.10843469  0.11784536     0.10200
Cu56       Cu  0.72035711  0.16653337  0.05940676     0.44200
Cu57       Cu  0.70860366  0.15047530  0.13690993     0.42000
Cu58       Cu  0.74504301  0.19256618  0.12142163     0.43900
N59         N  0.73829342  0.19390187  0.05395520    -0.33400
N60         N  0.74745285  0.20343087  0.07677493    -0.27700
C61         C  0.75723115  0.22123262  0.06624764    -0.03800
C62         C  0.75400840  0.22290298  0.03540998     0.08400
C63         C  0.74196930  0.20538907  0.02828074     0.02200
H64         H  0.76564156  0.23241408  0.08015057     0.09900
H65         H  0.73596156  0.20156774  0.00626509     0.09000
N66         N  0.73921655  0.17986231  0.16438097    -0.34900
N67         N  0.72573053  0.16488567  0.17019873    -0.27100
C68         C  0.72607314  0.15987090  0.20002992    -0.02300
C69         C  0.74041436  0.17230273  0.21343146     0.06300
C70         C  0.74846884  0.18476287  0.19030747     0.04400
H71         H  0.71689378  0.14768074  0.21094639     0.09500
H72         H  0.76039708  0.19623687  0.19203565     0.08300
N73         N  0.80198624  0.12392712  0.41138120    -0.26000
N74         N  0.79811889  0.12884026  0.44002375    -0.33900
C75         C  0.80675796  0.11380284  0.45815867     0.02300
C76         C  0.81683070  0.09893378  0.44022667     0.08300
C77         C  0.81351535  0.10584217  0.41062399    -0.04800
H78         H  0.80579216  0.11371116  0.48268449     0.09000
H79         H  0.81850200  0.09784961  0.39006387     0.10200
Cu80       Cu  0.78147086  0.15596037  0.45353994     0.44200
Cu81       Cu  0.78978369  0.14097872  0.37488686     0.42000
Cu82       Cu  0.75908949  0.18830984  0.39428388     0.43900
N83         N  0.76553155  0.18475131  0.46176839    -0.33400
N84         N  0.75742401  0.19668163  0.43996958    -0.27700
C85         C  0.74838908  0.21430978  0.45243767    -0.03800
C86         C  0.75094963  0.21336462  0.48349530     0.08400
C87         C  0.76187925  0.19449789  0.48871201     0.02200
H88         H  0.74060373  0.22688630  0.43979951     0.09900
H89         H  0.76689405  0.18835722  0.51041459     0.09000
N90         N  0.76224945  0.17583105  0.35056769    -0.34900
N91         N  0.77341833  0.15872947  0.34346128    -0.27100
C92         C  0.77160974  0.15444790  0.31359086    -0.02300
C93         C  0.75874808  0.16955953  0.30149638     0.06300
C94         C  0.75308165  0.18286881  0.32542862     0.04400
H95         H  0.77886769  0.14108402  0.30171806     0.09500
H96         H  0.74282958  0.19642245  0.32478057     0.08300
N97         N  0.21983938  0.82574151  0.67148194    -0.26000
N98         N  0.23169916  0.80920981  0.66477054    -0.33900
C99         C  0.24315354  0.80528375  0.68874187     0.02300
C100        C  0.23824183  0.82007570  0.71143252     0.08300
C101        C  0.22344827  0.83278212  0.69989747    -0.04800
H102        H  0.25445428  0.79291284  0.68931785     0.09000
H103        H  0.21614751  0.84646936  0.71100043     0.10200
Cu104      Cu  0.23279663  0.79377749  0.62269063     0.44200
Cu105      Cu  0.20053632  0.83953496  0.64091205     0.42000
Cu106      Cu  0.20641716  0.82180603  0.56311090     0.43900
N107        N  0.23243995  0.78303381  0.57796208    -0.33400
N108        N  0.22293092  0.79340569  0.55611940    -0.27700
C109        C  0.22584751  0.78257745  0.52976311    -0.03800
C110        C  0.23774308  0.76463924  0.53541842     0.08400
C111        C  0.24167698  0.76534238  0.56609385     0.02200
H112        H  0.21981109  0.78747256  0.50813603     0.09900
H113        H  0.25066715  0.75397308  0.57882938     0.09000
N114        N  0.18946101  0.84869154  0.57603061    -0.34900
N115        N  0.18641079  0.85436109  0.60463998    -0.27100
C116        C  0.17439151  0.87194560  0.60542498    -0.02300
C117        C  0.16997751  0.87787784  0.57590276     0.06300
C118        C  0.17977377  0.86278926  0.55783086     0.04400
H119        H  0.16978784  0.88031576  0.62593181     0.09500
H120        H  0.17978125  0.86201320  0.53329019     0.08300
N121        N  0.27948838  0.83414489  0.83556588    -0.26000
N122        N  0.26803969  0.81752172  0.84368233    -0.33900
C123        C  0.25736674  0.81142100  0.81972535     0.02300
C124        C  0.26232979  0.82480443  0.79547555     0.08300
C125        C  0.27635476  0.83904920  0.80611462    -0.04800
H126        H  0.24679294  0.79819819  0.82000223     0.09000
H127        H  0.28371286  0.85200360  0.79348661     0.10200
Cu128      Cu  0.26712879  0.80341176  0.88664247     0.44200
Cu129      Cu  0.29866110  0.84953525  0.86502941     0.42000
Cu130      Cu  0.29647329  0.82905194  0.94294169     0.43900
N131        N  0.26891965  0.79162894  0.93079332    -0.33400
N132        N  0.27974383  0.80115890  0.95167806    -0.27700
C133        C  0.27818687  0.78956364  0.97778714    -0.03800
C134        C  0.26577880  0.77197734  0.97293842     0.08400
C135        C  0.26015020  0.77370359  0.94300025     0.02200
H136        H  0.28564088  0.79355699  0.99859841     0.09900
H137        H  0.25052590  0.76270772  0.93091216     0.09000
N138        N  0.31358340  0.85539784  0.92876491    -0.34900
N139        N  0.31499916  0.86247001  0.90036685    -0.27100
C140        C  0.32786309  0.87924494  0.89914589    -0.02300
C141        C  0.33461745  0.88305188  0.92819953     0.06300
C142        C  0.32526100  0.86760763  0.94636220     0.04400
H143        H  0.33170343  0.88831026  0.87873894     0.09500
H144        H  0.32693228  0.86519318  0.97055959     0.08300
N145        N  0.87956203  0.95337678  0.53271037    -0.26000
N146        N  0.86321816  0.96158948  0.52245971    -0.33900
C147        C  0.84900758  0.94717909  0.52885967     0.02300
C148        C  0.85667256  0.92921670  0.54432512     0.08300
C149        C  0.87610588  0.93365784  0.54650856    -0.04800
H150        H  0.83420573  0.94944192  0.52225650     0.09000
H151        H  0.88703201  0.92284032  0.55587146     0.10200
Cu152      Cu  0.86097793  0.99143722  0.49880203     0.44200
Cu153      Cu  0.90582182  0.96808229  0.52304264     0.42000
Cu154      Cu  0.90461448  0.01472400  0.46855911     0.43900
N155        N  0.86176486  0.02061774  0.47338997    -0.33400
N156        N  0.87756952  0.02865421  0.46085498    -0.27700
C157        C  0.87313160  0.04736476  0.44526886    -0.03800
C158        C  0.85371010  0.05149814  0.44872040     0.08400
C159        C  0.84697290  0.03416541  0.46667521     0.02200
H160        H  0.88339700  0.05765169  0.43322711     0.09900
H161        H  0.83238334  0.03150623  0.47421583     0.09000
N162        N  0.92971716  0.99984947  0.48483207    -0.34900
N163        N  0.92999846  0.98338991  0.50491820    -0.27100
C164        C  0.94828598  0.97804885  0.51112674    -0.02300
C165        C  0.96031344  0.99177697  0.49425310     0.06300
C166        C  0.94791518  0.00539335  0.47782196     0.04400
H167        H  0.95238165  0.96508057  0.52694918     0.09500
H168        H  0.95173524  0.01845896  0.46194015     0.08300
N169        N  0.12498864  0.02776679  0.45244331    -0.26000
N170        N  0.14141943  0.01972978  0.46259099    -0.33900
C171        C  0.15576502  0.03317110  0.45340609     0.02300
C172        C  0.14797234  0.05030544  0.43626491     0.08300
C173        C  0.12847062  0.04627596  0.43591020    -0.04800
H174        H  0.17075007  0.03051435  0.45853139     0.09000
H175        H  0.11755487  0.05645171  0.42527517     0.10200
Cu176      Cu  0.14343367  0.99037076  0.48741595     0.44200
Cu177      Cu  0.09862933  0.01407595  0.46405531     0.42000
Cu178      Cu  0.09916212  0.96459866  0.51294323     0.43900
N179        N  0.14219035  0.95993042  0.50987126    -0.33400
N180        N  0.12621904  0.95075855  0.52028676    -0.27700
C181        C  0.13058305  0.93116942  0.53378996    -0.03800
C182        C  0.15018066  0.92783185  0.53127453     0.08400
C183        C  0.15701282  0.94628030  0.51584156     0.02200
H184        H  0.12019745  0.91982751  0.54361395     0.09900
H185        H  0.17171103  0.94953854  0.50932198     0.09000
N186        N  0.07427892  0.98129620  0.49961122    -0.34900
N187        N  0.07418479  0.99911898  0.48182519    -0.27100
C188        C  0.05597042  0.00564098  0.47729151    -0.02300
C189        C  0.04381347  0.99121714  0.49282998     0.06300
C190        C  0.05606241  0.97599246  0.50674347     0.04400
H191        H  0.05200172  0.01981378  0.46341659     0.09500
H192        H  0.05213665  0.96190466  0.52083805     0.08300
N193        N  0.73661864  0.83039361  0.85233929    -0.26000
N194        N  0.74485909  0.81085008  0.85761821    -0.33900
C195        C  0.75396221  0.80402825  0.83234827     0.02300
C196        C  0.75128651  0.81999442  0.81017721     0.08300
C197        C  0.74025921  0.83648951  0.82342892    -0.04800
H198        H  0.76181522  0.78851713  0.83027522     0.09000
H199        H  0.73515020  0.85168961  0.81285040     0.10200
Cu200      Cu  0.74314372  0.79372548  0.89840841     0.44200
Cu201      Cu  0.72030503  0.84748457  0.88446775     0.42000
Cu202      Cu  0.71079492  0.81589370  0.95387956     0.43900
N203        N  0.73905619  0.77918439  0.94059977    -0.33400
N204        N  0.72702580  0.78717477  0.96111314    -0.27700
C205        C  0.72825004  0.77461768  0.98647276    -0.03800
C206        C  0.74164621  0.75800134  0.98145107     0.08400
C207        C  0.74823314  0.76136165  0.95224346     0.02200
H208        H  0.72039406  0.77775101  0.00724059     0.09900
H209        H  0.75923364  0.75194663  0.94056824     0.09000
N210        N  0.69857104  0.84677564  0.94384518    -0.34900
N211        N  0.70281572  0.85891543  0.91958401    -0.27100
C212        C  0.69338888  0.87854503  0.92128324    -0.02300
C213        C  0.68251143  0.87854038  0.94765760     0.06300
C214        C  0.68604774  0.85812488  0.96120255     0.04400
H215        H  0.69404828  0.89158289  0.90425762     0.09500
H216        H  0.68022106  0.85211568  0.98249147     0.08300
N217        N  0.78939174  0.82464116  0.68261021    -0.26000
N218        N  0.77726672  0.80842050  0.67578032    -0.33900
C219        C  0.76664712  0.80354808  0.70047999     0.02300
C220        C  0.77240660  0.81739739  0.72375580     0.08300
C221        C  0.78679908  0.83054332  0.71178716    -0.04800
H222        H  0.75544487  0.79106012  0.70127479     0.09000
H223        H  0.79462370  0.84364703  0.72323996     0.10200
Cu224      Cu  0.77528339  0.79418808  0.63294017     0.44200
Cu225      Cu  0.80815333  0.83904627  0.65167770     0.42000
Cu226      Cu  0.80223785  0.82205572  0.57356254     0.43900
N227        N  0.77596088  0.78344015  0.58814828    -0.33400
N228        N  0.78571401  0.79370697  0.56641580    -0.27700
C229        C  0.78321349  0.78265325  0.54013502    -0.03800
C230        C  0.77134609  0.76465731  0.54571640     0.08400
C231        C  0.76698534  0.76558834  0.57627047     0.02200
H232        H  0.78954646  0.78740663  0.51861916     0.09900
H233        H  0.75792398  0.75421582  0.58893677     0.09000
N234        N  0.81955857  0.84844305  0.58697258    -0.34900
N235        N  0.82257160  0.85384394  0.61566693    -0.27100
C236        C  0.83471265  0.87129593  0.61675429    -0.02300
C237        C  0.83924067  0.87742510  0.58734127     0.06300
C238        C  0.82940104  0.86259058  0.56901360     0.04400
H239        H  0.83915712  0.87958594  0.63737823     0.09500
H240        H  0.82930159  0.86217747  0.54445635     0.08300
N241        N  0.62946483  0.03343500  0.04679705    -0.26000
N242        N  0.64592706  0.02755886  0.03422826    -0.33900
C243        C  0.65914285  0.04328249  0.04028430     0.02300
C244        C  0.65060163  0.05977020  0.05769441     0.08300
C245        C  0.63183697  0.05290415  0.06158014    -0.04800
H246        H  0.67392304  0.04257810  0.03289936     0.09000
H247        H  0.62061324  0.06167515  0.07364172     0.10200
Cu248      Cu  0.64974591  0.99808189  0.01012626     0.44200
Cu249      Cu  0.60430165  0.01547595  0.04094590     0.42000
Cu250      Cu  0.60759504  0.96335821  0.99909060     0.43900
N251        N  0.65048308  0.96670797  0.99001181    -0.33400
N252        N  0.63531404  0.95361574  0.98718470    -0.27700
C253        C  0.64085933  0.93411287  0.97473320    -0.03800
C254        C  0.66040145  0.93511818  0.96916155     0.08400
C255        C  0.66597783  0.95604477  0.97896684     0.02200
H256        H  0.63130938  0.92039610  0.96962316     0.09900
H257        H  0.68033355  0.96287663  0.97863800     0.09000
N258        N  0.58170534  0.97853710  0.01082008    -0.34900
N259        N  0.58068563  0.99733879  0.02641597    -0.27100
C260        C  0.56222034  0.00336086  0.02922787    -0.02300
C261        C  0.55085957  0.98767064  0.01465841     0.06300
C262        C  0.56381924  0.97214282  0.00324864     0.04400
H263        H  0.55757059  0.01852341  0.04030474     0.09500
H264        H  0.56058689  0.95740810  0.99006046     0.08300
N265        N  0.38708089  0.03055939  0.03608260    -0.26000
N266        N  0.37286105  0.01657327  0.04174107    -0.33900
C267        C  0.35797616  0.02793904  0.05340489     0.02300
C268        C  0.36288257  0.05025100  0.05470118     0.08300
C269        C  0.38147105  0.05139319  0.04355891    -0.04800
H270        H  0.34426128  0.02063224  0.05920755     0.09000
H271        H  0.39024588  0.06619018  0.04111302     0.10200
Cu272      Cu  0.37321021  0.98348674  0.02852250     0.44200
Cu273      Cu  0.41318714  0.01960259  0.01860315     0.42000
Cu274      Cu  0.41262406  0.96494425  0.98136810     0.45500
N275        N  0.37236409  0.95512412  0.00192224    -0.33400
N276        N  0.38602580  0.94911709  0.98274647    -0.27700
C277        C  0.37981569  0.93147441  0.96650141    -0.03800
C278        C  0.36147403  0.92615493  0.97632459     0.08400
C279        C  0.35731982  0.94135396  0.99884919     0.02200
H280        H  0.38812661  0.92296742  0.94928780     0.09900
H281        H  0.34405380  0.94276432  0.01146834     0.09000
N282        N  0.43756417  0.98263730  0.99135864    -0.34900
N283        N  0.43765163  0.00228153  0.00505785    -0.27100
C284        C  0.45587294  0.00813310  0.01090515    -0.02300
C285        C  0.46799549  0.99141536  0.00049785     0.06300
C286        C  0.45578868  0.97556259  0.98807050     0.04400
H287        H  0.45987226  0.02328594  0.02260226     0.09500
H288        H  0.45974540  0.95955773  0.97859619     0.08300
N289        N  0.30267038  0.36170213  0.57858449    -0.26000
N290        N  0.29888578  0.35638241  0.55009751    -0.33900
C291        C  0.30836201  0.37038937  0.53149886     0.02300
C292        C  0.31887852  0.38496641  0.54906420     0.08300
C293        C  0.31497668  0.37903076  0.57885117    -0.04800
H294        H  0.30761544  0.37000195  0.50696103     0.09000
H295        H  0.32005128  0.38724783  0.59915656     0.10200
Cu296      Cu  0.28136191  0.33009431  0.53760219     0.44200
Cu297      Cu  0.28943176  0.34632789  0.61540370     0.42000
Cu298      Cu  0.25716335  0.30022458  0.59776152     0.43900
N299        N  0.26536746  0.30147161  0.53055144    -0.33400
N300        N  0.25654428  0.29040018  0.55253710    -0.27700
C301        C  0.24817249  0.27213600  0.54069424    -0.03800
C302        C  0.25197157  0.27183608  0.50991406     0.08400
C303        C  0.26288892  0.29057607  0.50417295     0.02200
H304        H  0.24023598  0.25982241  0.55362766     0.09900
H305        H  0.26891311  0.29570940  0.48259413     0.09000
N306        N  0.26076114  0.31334894  0.64104272    -0.34900
N307        N  0.27255895  0.33000093  0.64744742    -0.27100
C308        C  0.27128057  0.33465869  0.67727046    -0.02300
C309        C  0.25811339  0.32024227  0.69010370     0.06300
C310        C  0.25169618  0.30696385  0.66664958     0.04400
H311        H  0.27921436  0.34770981  0.68864502     0.09500
H312        H  0.24112469  0.29377179  0.66799009     0.08300
N313        N  0.19575007  0.35535257  0.89308230    -0.26000
N314        N  0.19417721  0.34465822  0.91929129    -0.33900
C315        C  0.18319311  0.35684535  0.93821504     0.02300
C316        C  0.17787989  0.37627934  0.92339969     0.08300
C317        C  0.18608447  0.37476968  0.89481270    -0.04800
H318        H  0.17973272  0.35216709  0.96133051     0.09000
H319        H  0.18499288  0.38678131  0.87650805     0.10200
Cu320      Cu  0.20812621  0.31468333  0.92869920     0.44200
Cu321      Cu  0.21081230  0.34302797  0.85594992     0.42000
Cu322      Cu  0.23717963  0.29175447  0.86762950     0.43900
N323        N  0.22508074  0.28623515  0.93308658    -0.33400
N324        N  0.23568852  0.27797839  0.91082854    -0.27700
C325        C  0.24539013  0.26009985  0.92120173    -0.03800
C326        C  0.24063755  0.25701640  0.95133248     0.08400
C327        C  0.22778917  0.27380932  0.95824435     0.02200
H328        H  0.25540273  0.25035316  0.90791257     0.09900
H329        H  0.22117294  0.27703360  0.98004276     0.09000
N330        N  0.23637787  0.30864435  0.82647108    -0.34900
N331        N  0.22665855  0.32735693  0.82212913    -0.27100
C332        C  0.22892824  0.33397797  0.79310608    -0.02300
C333        C  0.24063127  0.31870802  0.77869161     0.06300
C334        C  0.24512102  0.30287783  0.80036723     0.04400
H335        H  0.22253735  0.34878950  0.78329348     0.09500
H336        H  0.25403213  0.28824495  0.79743180     0.08300
N337        N  0.28288496  0.65930189  0.33981277    -0.26000
N338        N  0.27079483  0.67584457  0.34533448    -0.33900
C339        C  0.26185420  0.68144906  0.31935765     0.02300
C340        C  0.26865873  0.66778313  0.29655465     0.08300
C341        C  0.28194022  0.65393575  0.31017624    -0.04800
H342        H  0.25095012  0.69421768  0.31739200     0.09000
H343        H  0.28998797  0.64061291  0.29955551     0.10200
Cu344      Cu  0.26632553  0.68948152  0.38813290     0.44200
Cu345      Cu  0.29904145  0.64365456  0.37321045     0.42000
Cu346      Cu  0.28922358  0.66091777  0.45054769     0.43900
N347        N  0.26452219  0.70008517  0.43295267    -0.33400
N348        N  0.27294658  0.68956293  0.45575447    -0.27700
C349        C  0.26932729  0.70060019  0.48170879    -0.03800
C350        C  0.25808496  0.71885835  0.47483007     0.08400
C351        C  0.25526498  0.71811866  0.44382502     0.02200
H352        H  0.27453177  0.69569133  0.50387136     0.09900
H353        H  0.24715272  0.72979903  0.43016177     0.09000
N354        N  0.30623989  0.63382465  0.43939590    -0.34900
N355        N  0.31060570  0.62817598  0.41120388    -0.27100
C356        C  0.32207693  0.61012361  0.41180070    -0.02300
C357        C  0.32484546  0.60403753  0.44180858     0.06300
C358        C  0.31452976  0.61930723  0.45865330     0.04400
H359        H  0.32728007  0.60150943  0.39185157     0.09500
H360        H  0.31304628  0.61976509  0.48311053     0.08300
N361        N  0.23454575  0.65752270  0.16658806    -0.26000
N362        N  0.24493552  0.67554402  0.16073424    -0.33900
C363        C  0.25441123  0.68156016  0.18601353     0.02300
C364        C  0.24977090  0.66663141  0.20876434     0.08300
C365        C  0.23717416  0.65161818  0.19583029    -0.04800
H366        H  0.26399398  0.69571992  0.18762621     0.09000
H367        H  0.23047298  0.63741537  0.20677541     0.10200
Cu368      Cu  0.24615757  0.69120447  0.11869964     0.44200
Cu369      Cu  0.21761498  0.64139289  0.13433212     0.42000
Cu370      Cu  0.22136764  0.66333706  0.05781690     0.43900
N371        N  0.24537461  0.70332724  0.07455454    -0.33400
N372        N  0.23632660  0.69304391  0.05222486    -0.27700
C373        C  0.23845723  0.70499030  0.02651628    -0.03800
C374        C  0.24936685  0.72357856  0.03308893     0.08400
C375        C  0.25353814  0.72208907  0.06365008     0.02200
H376        H  0.23251404  0.70044802  0.00471405     0.09900
H377        H  0.26188598  0.73370791  0.07697717     0.09000
N378        N  0.20574357  0.63495499  0.06898212    -0.34900
N379        N  0.20364752  0.62740183  0.09704566    -0.27100
C380        C  0.19174137  0.60967184  0.09663964    -0.02300
C381        C  0.18634244  0.60570452  0.06688912     0.06300
C382        C  0.19551910  0.62205739  0.04997619     0.04400
H383        H  0.18744874  0.60024152  0.11650803     0.09500
H384        H  0.19445312  0.62478995  0.02575102     0.08300
N385        N  0.70326528  0.36319056  0.60718715    -0.26000
N386        N  0.69712191  0.35165833  0.58352993    -0.33900
C387        C  0.68592523  0.36491672  0.56636408     0.02300
C388        C  0.68516234  0.38581401  0.57978076     0.08300
C389        C  0.69637749  0.38413450  0.60545984    -0.04800
H390        H  0.67930172  0.35986243  0.54528459     0.09000
H391        H  0.69922468  0.39714966  0.62185267     0.10200
Cu392      Cu  0.70554572  0.31907243  0.57407171     0.44200
Cu393      Cu  0.72047970  0.35020075  0.64125329     0.42000
Cu394      Cu  0.73761897  0.29424830  0.62911588     0.43900
N395        N  0.71956272  0.28881487  0.56727923    -0.33400
N396        N  0.73142508  0.27990450  0.58734274    -0.27700
C397        C  0.73947442  0.26150805  0.57527593    -0.03800
C398        C  0.73232063  0.25874406  0.54633011     0.08400
C399        C  0.71976294  0.27629479  0.54189506     0.02200
H400        H  0.75026901  0.25140931  0.58634796     0.09900
H401        H  0.71196414  0.28021275  0.52134978     0.09000
N402        N  0.74304266  0.31232136  0.66839628    -0.34900
N403        N  0.73684632  0.33294627  0.67280969    -0.27100
C404        C  0.74273286  0.34000402  0.70026203    -0.02300
C405        C  0.75313341  0.32299019  0.71357747     0.06300
C406        C  0.75306001  0.30569496  0.69290023     0.04400
H407        H  0.73959550  0.35624266  0.70980453     0.09500
H408        H  0.75973295  0.28948574  0.69545674     0.08300
N409        N  0.79336269  0.33041712  0.83959484    -0.26000
N410        N  0.78103927  0.31446881  0.84687874    -0.33900
C411        C  0.77076512  0.30901241  0.82216568     0.02300
C412        C  0.77691743  0.32215870  0.79829559     0.08300
C413        C  0.79122208  0.33555375  0.80999290    -0.04800
H414        H  0.75937012  0.29675523  0.82182759     0.09000
H415        H  0.79913545  0.34845583  0.79813614     0.10200
Cu416      Cu  0.77795075  0.30159228  0.89038967     0.44200
Cu417      Cu  0.81138988  0.34556642  0.87099115     0.42000
Cu418      Cu  0.80428269  0.32879340  0.95003937     0.43900
N419        N  0.77737545  0.29106304  0.93529006    -0.33400
N420        N  0.78704769  0.30098275  0.95726159    -0.27700
C421        C  0.78425530  0.28965498  0.98336034    -0.03800
C422        C  0.77225783  0.27185879  0.97735933     0.08400
C423        C  0.76814266  0.27320272  0.94678341     0.02200
H424        H  0.79074294  0.29384728  0.00490173     0.09900
H425        H  0.75939174  0.26183589  0.93370896     0.09000
N426        N  0.82181933  0.35499933  0.93632780    -0.34900
N427        N  0.82512478  0.36043696  0.90764559    -0.27100
C428        C  0.83755496  0.37763661  0.90677853    -0.02300
C429        C  0.84199499  0.38352851  0.93626860     0.06300
C430        C  0.83178524  0.36882645  0.95442308     0.04400
H431        H  0.84254485  0.38568593  0.88620670     0.09500
H432        H  0.83171438  0.36807489  0.97896743     0.08300
N433        N  0.38065913  0.45302791  0.52731677    -0.26000
N434        N  0.36460960  0.46231294  0.51757676    -0.33900
C435        C  0.34975950  0.44908904  0.52500800     0.02300
C436        C  0.35677985  0.43072035  0.54050008     0.08300
C437        C  0.37639037  0.43382375  0.54181487    -0.04800
H438        H  0.33495279  0.45264250  0.51959911     0.09000
H439        H  0.38684707  0.42253683  0.55150129     0.10200
Cu440      Cu  0.36345600  0.49252183  0.49469656     0.44200
Cu441      Cu  0.40759787  0.46571466  0.51709432     0.42000
Cu442      Cu  0.40813122  0.51421824  0.46671397     0.43900
N443        N  0.36589351  0.52279457  0.47222478    -0.33400
N444        N  0.38217907  0.53033807  0.46076471    -0.27700
C445        C  0.37896330  0.55005371  0.44697190    -0.03800
C446        C  0.35982167  0.55531971  0.45047908     0.08400
C447        C  0.35192831  0.53768618  0.46656331     0.02200
H448        H  0.38984703  0.56005710  0.43588381     0.09900
H449        H  0.33711303  0.53566065  0.47330960     0.09000
N450        N  0.43237650  0.49676343  0.47972310    -0.34900
N451        N  0.43227047  0.47938449  0.49829055    -0.27100
C452        C  0.45036704  0.47222351  0.50214303    -0.02300
C453        C  0.46251759  0.48579420  0.48526419     0.06300
C454        C  0.45051477  0.50117869  0.47138577     0.04400
H455        H  0.45430255  0.45827097  0.51646635     0.09500
H456        H  0.45453750  0.51461676  0.45621394     0.08300
N457        N  0.62624273  0.52939327  0.47482132    -0.26000
N458        N  0.64129484  0.52308597  0.49090244    -0.33900
C459        C  0.65538248  0.53824834  0.48710844     0.02300
C460        C  0.64886134  0.55469810  0.46744640     0.08300
C461        C  0.63040944  0.54847106  0.46006680    -0.04800
H462        H  0.66955545  0.53685300  0.49683036     0.09000
H463        H  0.62073412  0.55709782  0.44486853     0.10200
Cu464      Cu  0.64255381  0.49267492  0.51394648     0.44200
Cu465      Cu  0.60064531  0.51193534  0.47327216     0.42000
Cu466      Cu  0.60014960  0.45721032  0.50577330     0.43900
N467        N  0.64126531  0.45923265  0.52706878    -0.33400
N468        N  0.62613403  0.44630877  0.52272949    -0.27700
C469        C  0.63048125  0.42526176  0.53082692    -0.03800
C470        C  0.64913192  0.42487875  0.54109024     0.08400
C471        C  0.65558852  0.44670028  0.53846229     0.02200
H472        H  0.62076706  0.41122459  0.52920921     0.09900
H473        H  0.66982419  0.45286450  0.54331637     0.09000
N474        N  0.57571683  0.47287288  0.48998323    -0.34900
N475        N  0.57595218  0.49305737  0.47789152    -0.27100
C476        C  0.55789295  0.49937662  0.47182880    -0.02300
C477        C  0.54554366  0.48234357  0.48063506     0.06300
C478        C  0.55748743  0.46575213  0.49197393     0.04400
H479        H  0.55414208  0.51557666  0.46273496     0.09500
H480        H  0.55333596  0.44996389  0.50197155     0.08300
N481        N  0.72454174  0.65860402  0.35179768    -0.26000
N482        N  0.73585483  0.67601464  0.35645656    -0.33900
C483        C  0.74494898  0.68113999  0.33035333     0.02300
C484        C  0.73907931  0.66624652  0.30836450     0.08300
C485        C  0.72617246  0.65219975  0.32260811    -0.04800
H486        H  0.75549736  0.69427065  0.32786648     0.09000
H487        H  0.71897944  0.63793175  0.31279774     0.10200
Cu488      Cu  0.73985885  0.69083129  0.39863577     0.44200
Cu489      Cu  0.70887683  0.64277790  0.38591111     0.42000
Cu490      Cu  0.71956753  0.66064512  0.46230671     0.43900
N491        N  0.74295618  0.70079468  0.44355799    -0.33400
N492        N  0.73564415  0.68959145  0.46678741    -0.27700
C493        C  0.74020224  0.70013475  0.49273361    -0.03800
C494        C  0.75088632  0.71877825  0.48541654     0.08400
C495        C  0.75239280  0.71878482  0.45414295     0.02200
H496        H  0.73596935  0.69465886  0.51520328     0.09900
H497        H  0.75975182  0.73093427  0.44010844     0.09000
N498        N  0.70272766  0.63306048  0.45243187    -0.34900
N499        N  0.69804935  0.62707383  0.42452904    -0.27100
C500        C  0.68678553  0.60882884  0.42594559    -0.02300
C501        C  0.68446534  0.60296744  0.45620994     0.06300
C502        C  0.69483813  0.61861575  0.47229084     0.04400
H503        H  0.68129644  0.60004592  0.40636470     0.09500
H504        H  0.69654060  0.61944914  0.49668122     0.08300
N505        N  0.80733245  0.61964227  0.11373186    -0.26000
N506        N  0.81122170  0.63010603  0.08792949    -0.33900
C507        C  0.82405864  0.61794520  0.07209525     0.02300
C508        C  0.82822535  0.59881295  0.08858839     0.08300
C509        C  0.81726355  0.60038740  0.11466662    -0.04800
H510        H  0.82931488  0.62224367  0.04970491     0.09000
H511        H  0.81655825  0.58838084  0.13304595     0.10200
Cu512      Cu  0.79741552  0.65932100  0.07415100     0.44200
Cu513      Cu  0.78932157  0.63214481  0.14743022     0.42000
Cu514      Cu  0.76689712  0.68484951  0.13108200     0.43900
N515        N  0.77939595  0.68638743  0.06541959    -0.33400
N516        N  0.76831346  0.69560609  0.08635329    -0.27700
C517        C  0.75795755  0.71208041  0.07358215    -0.03800
C518        C  0.76272729  0.71325363  0.04322316     0.08400
C519        C  0.77633837  0.69680287  0.03869216     0.02200
H520        H  0.74759839  0.72228184  0.08550234     0.09900
H521        H  0.78336381  0.69256911  0.01754755     0.09000
N522        N  0.76569666  0.66967869  0.17340548    -0.34900
N523        N  0.77354388  0.65004097  0.17936884    -0.27100
C524        C  0.76994559  0.64465137  0.20855789    -0.02300
C525        C  0.75936317  0.66174691  0.22135894     0.06300
C526        C  0.75692523  0.67733077  0.19855836     0.04400
H527        H  0.77473790  0.62949136  0.21960835     0.09500
H528        H  0.74928333  0.69301994  0.20004537     0.08300
N529        N  0.88825239  0.45461682  0.98971738    -0.26000
N530        N  0.87300818  0.46334135  0.00305286    -0.33900
C531        C  0.85792768  0.44973161  0.99885296     0.02300
C532        C  0.86385110  0.43176206  0.98163561     0.08300
C533        C  0.88317753  0.43533669  0.97620636    -0.04800
H534        H  0.84358901  0.45294760  0.00716034     0.09000
H535        H  0.89288225  0.42459068  0.96381381     0.10200
Cu536      Cu  0.87293059  0.49421597  0.02419353     0.44200
Cu537      Cu  0.91518583  0.46942207  0.99152348     0.42000
Cu538      Cu  0.91633489  0.52677285  0.02030195     0.43900
N539        N  0.87451560  0.52730997  0.03759421    -0.33400
N540        N  0.89006615  0.53976968  0.03473755    -0.27700
C541        C  0.88576279  0.56087992  0.04296250    -0.03800
C542        C  0.86670327  0.56156331  0.05184854     0.08400
C543        C  0.86005153  0.53996997  0.04810917     0.02200
H544        H  0.89576538  0.57468999  0.04258669     0.09900
H545        H  0.84557676  0.53403375  0.05167362     0.09000
N546        N  0.94068517  0.50832153  0.00866603    -0.34900
N547        N  0.94022124  0.48759843  0.99832256    -0.27100
C548        C  0.95829274  0.48035506  0.99413021    -0.02300
C549        C  0.97087861  0.49725596  0.00228095     0.06300
C550        C  0.95910041  0.51473777  0.01136142     0.04400
H551        H  0.96192645  0.46376346  0.98634390     0.09500
H552        H  0.96351953  0.53096264  0.01950996     0.08300
N553        N  0.13447355  0.45534009  0.96063796    -0.26000
N554        N  0.14951012  0.46835759  0.95594959    -0.33900
C555        C  0.16358574  0.45627075  0.94307890     0.02300
C556        C  0.15727732  0.43452050  0.93998116     0.08300
C557        C  0.13873410  0.43447753  0.95133830    -0.04800
H558        H  0.17757214  0.46273632  0.93706794     0.09000
H559        H  0.12895045  0.42046958  0.95223919     0.10200
Cu560      Cu  0.15090313  0.50146977  0.96978229     0.44200
Cu561      Cu  0.10869829  0.46725935  0.97816667     0.42000
Cu562      Cu  0.10991824  0.52374332  0.00959902     0.43900
N563        N  0.15132278  0.53158569  0.99310449    -0.33400
N564        N  0.13673775  0.53919824  0.00928471    -0.27700
C565        C  0.14239079  0.55767002  0.02430023    -0.03800
C566        C  0.16137178  0.56192137  0.01687353     0.08400
C567        C  0.16646912  0.54519155  0.99687832     0.02200
H568        H  0.13334736  0.56732827  0.03932419     0.09900
H569        H  0.18041883  0.54259823  0.98670712     0.09000
N570        N  0.08488833  0.50512951  0.00380646    -0.34900
N571        N  0.08448084  0.48469910  0.99244950    -0.27100
C572        C  0.06613089  0.47794673  0.99033345    -0.02300
C573        C  0.05427779  0.49489894  0.00085057     0.06300
C574        C  0.06678982  0.51184337  0.00925924     0.04400
H575        H  0.06181418  0.46192033  0.98136978     0.09500
H576        H  0.06306560  0.52817831  0.01788206     0.08300
C577        C  0.00296687  0.51254200  0.01801683    -0.12100
C578        C  0.99222254  0.49655095  0.00206285     0.10000
C579        C  0.00209803  0.47984110  0.98597597    -0.12100
C580        C  0.02216405  0.47921573  0.98572559    -0.12100
C581        C  0.03291760  0.49528331  0.00156340     0.10000
C582        C  0.02302790  0.51190562  0.01779262    -0.12100
H583        H  0.99592320  0.52550081  0.03097994     0.14000
H584        H  0.99437029  0.46734453  0.97319453     0.14000
H585        H  0.02918837  0.46626366  0.97272979     0.14000
H586        H  0.03073924  0.52442202  0.03055350     0.14000
C587        C  0.85554532  0.58139573  0.06137092    -0.15200
C588        C  0.84013272  0.57950419  0.07957667    -0.30400
H589        H  0.86032075  0.59779235  0.05391048     0.13800
H590        H  0.83640201  0.56330086  0.08906246     0.14400
C591        C  0.75223411  0.66312310  0.25204238    -0.12000
C592        C  0.74616474  0.66455128  0.27768585    -0.13600
C593        C  0.65939869  0.57394913  0.45465425    -0.15200
C594        C  0.67414936  0.58357081  0.46910350    -0.30400
H595        H  0.65432036  0.58096784  0.43336645     0.13800
H596        H  0.67825850  0.57771703  0.49153530     0.14400
C597        C  0.49428279  0.50231215  0.47069415    -0.12100
C598        C  0.48371015  0.48449554  0.48305832     0.10000
C599        C  0.49361883  0.46558716  0.49362707    -0.12100
C600        C  0.51362464  0.46469307  0.49235165    -0.12100
C601        C  0.52423899  0.48271971  0.48054803     0.10000
C602        C  0.51426471  0.50143564  0.46944342    -0.12100
H603        H  0.48721445  0.51720087  0.46241573     0.14000
H604        H  0.48597718  0.45141059  0.50293599     0.14000
H605        H  0.52067867  0.44990130  0.50094484     0.14000
H606        H  0.52179663  0.51563744  0.46003848     0.14000
C607        C  0.85472968  0.40187166  0.94593393    -0.15200
C608        C  0.85178463  0.41282252  0.97209597    -0.30400
H609        H  0.86598289  0.40730775  0.93051293     0.13800
H610        H  0.83942392  0.40871757  0.98607759     0.14400
C611        C  0.67507833  0.40602294  0.56915691    -0.15200
C612        C  0.65973195  0.40484175  0.55095831    -0.30400
H613        H  0.67978749  0.42209890  0.57777638     0.13800
H614        H  0.65414829  0.38864494  0.54426723     0.14400
C615        C  0.76191418  0.32304212  0.74314066    -0.12000
C616        C  0.76902126  0.32277773  0.76811892    -0.13600
C617        C  0.17399041  0.58008820  0.02761786    -0.15200
C618        C  0.17305495  0.58817355  0.05603483    -0.30400
H619        H  0.18524040  0.58581293  0.01239012     0.13800
H620        H  0.16296973  0.58099240  0.07215272     0.14400
C621        C  0.33506293  0.58435105  0.45362002    -0.15200
C622        C  0.35002408  0.57536906  0.43890014    -0.30400
H623        H  0.33054490  0.57752452  0.47537443     0.13800
H624        H  0.35565968  0.58335833  0.41858132     0.14400
C625        C  0.26229750  0.66719697  0.26547778    -0.12000
C626        C  0.25664397  0.66679959  0.23958242    -0.13600
C627        C  0.16608085  0.39461212  0.93593773    -0.15200
C628        C  0.16827877  0.41585740  0.92665849    -0.30400
H629        H  0.15625073  0.39078085  0.95439105     0.13800
H630        H  0.17936955  0.41994111  0.91020916     0.14400
C631        C  0.33025470  0.40397716  0.53779531    -0.15200
C632        C  0.34580005  0.41155363  0.55238577    -0.30400
H633        H  0.32618293  0.41132568  0.51615809     0.13800
H634        H  0.35103331  0.40294078  0.57246887     0.14400
C635        C  0.25199769  0.31958775  0.72132828    -0.12000
C636        C  0.24682866  0.31916269  0.74750123    -0.13600
C637        C  0.51853890  0.00341166  0.02794810    -0.12100
C638        C  0.52961475  0.98817009  0.01115918     0.10000
C639        C  0.52016356  0.97374562  0.99091049    -0.12100
C640        C  0.50019532  0.97471606  0.98741910    -0.12100
C641        C  0.48919835  0.99016086  0.00403998     0.10000
C642        C  0.49866428  0.00441223  0.02441398    -0.12100
H643        H  0.52513148  0.01459726  0.04408980     0.14000
H644        H  0.52815602  0.96184753  0.97745626     0.14000
H645        H  0.49343847  0.96353077  0.97141508     0.14000
H646        H  0.49075219  0.01628430  0.03801484     0.14000
C647        C  0.76456464  0.74852642  0.52407301    -0.12000
C648        C  0.75852706  0.73500372  0.50619444    -0.13600
C649        C  0.74864009  0.74178260  0.00297192    -0.12000
C650        C  0.75500506  0.72852992  0.02106378    -0.13600
C651        C  0.66940864  0.89596173  0.95923352    -0.15200
C652        C  0.67293312  0.91786127  0.95560480    -0.30400
H653        H  0.65734045  0.89063158  0.97308914     0.13800
H654        H  0.68599294  0.92323384  0.94426619     0.14400
C655        C  0.75842858  0.81931569  0.77954199    -0.12000
C656        C  0.76469083  0.81840930  0.75402132    -0.13600
C657        C  0.99205692  0.97562368  0.51042344    -0.12100
C658        C  0.98169326  0.99182885  0.49408065     0.10000
C659        C  0.99200954  0.00803320  0.47764370    -0.12100
C660        C  0.01208044  0.00794856  0.47742278    -0.12100
C661        C  0.02243714  0.99163081  0.49359469     0.10000
C662        C  0.01210839  0.97553549  0.51019859    -0.12100
H663        H  0.98477300  0.96280111  0.52334956     0.14000
H664        H  0.98465611  0.02087954  0.46489231     0.14000
H665        H  0.01938311  0.02070155  0.46439308     0.14000
H666        H  0.01942498  0.96269885  0.52300958     0.14000
C667        C  0.84618036  0.90889600  0.55336933    -0.15200
C668        C  0.85091958  0.89678400  0.57788617    -0.30400
H669        H  0.83336786  0.90466439  0.54062962     0.13800
H670        H  0.86255989  0.90218444  0.59247867     0.14400
C671        C  0.26010284  0.75511058  0.99446517    -0.12000
C672        C  0.25525601  0.74082152  0.01226347    -0.13600
C673        C  0.34855615  0.90025012  0.93770555    -0.15200
C674        C  0.34861270  0.90814361  0.96620962    -0.30400
H675        H  0.35810648  0.90737784  0.92074959     0.13800
H676        H  0.33789260  0.90235015  0.98232192     0.14400
C677        C  0.24480789  0.74868538  0.51375089    -0.12000
C678        C  0.25081415  0.73519874  0.49577965    -0.13600
C679        C  0.15777231  0.89672442  0.56615482    -0.15200
C680        C  0.16160547  0.90828160  0.54070972    -0.30400
H681        H  0.14626041  0.90210431  0.58108887     0.13800
H682        H  0.17427504  0.90423193  0.52743091     0.14400
C683        C  0.24715292  0.82232488  0.74066375    -0.12000
C684        C  0.25436390  0.82386534  0.76543458    -0.13600
C685        C  0.74398477  0.22906265  0.50572651    -0.12000
C686        C  0.73839970  0.24245065  0.52425063    -0.13600
C687        C  0.82754953  0.07917752  0.45118152    -0.15200
C688        C  0.84279549  0.07072089  0.43643279    -0.30400
H689        H  0.82343029  0.07222051  0.47304832     0.13800
H690        H  0.84805502  0.07886244  0.41598219     0.14400
C691        C  0.76604221  0.25476167  0.99820639    -0.12000
C692        C  0.76069606  0.24021448  0.01526756    -0.13600
C693        C  0.65947785  0.08024525  0.06997024    -0.15200
C694        C  0.67429593  0.09020221  0.05593097    -0.30400
H695        H  0.65327543  0.08769991  0.09020044     0.13800
H696        H  0.67940230  0.08375015  0.03433779     0.14400
C697        C  0.74656918  0.17144223  0.24461833    -0.12000
C698        C  0.75206444  0.17064707  0.27059331    -0.13600
C699        C  0.24839957  0.24057861  0.97179144    -0.12000
C700        C  0.25503945  0.22725103  0.98948634    -0.13600
C701        C  0.35107582  0.08918614  0.05340047    -0.15200
C702        C  0.35025590  0.06847922  0.06513467    -0.30400
H703        H  0.36119484  0.09293204  0.03531292     0.13800
H704        H  0.33895281  0.06422546  0.08113612     0.14400
C705        C  0.24221590  0.24041872  0.47079450    -0.12000
C706        C  0.24658543  0.25487428  0.48851190    -0.13600
C707        C  0.17300895  0.07911859  0.43539669    -0.15200
C708        C  0.15805812  0.06922434  0.42184632    -0.30400
H709        H  0.17747675  0.07360739  0.45782239     0.13800
H710        H  0.15229872  0.07611479  0.40092079     0.14400
C711        C  0.24614229  0.16335643  0.24604974    -0.12000
C712        C  0.25292188  0.16307433  0.22085200    -0.13600
loop_ 
_geom_bond_atom_site_label_1 
_geom_bond_atom_site_label_2 
_geom_bond_distance 
_geom_bond_site_symmetry_2 
_ccdc_geom_bond_type 
N1            N2   1.322       .  A
N1            C5   1.347       .  A
N1           Cu9   2.079       .  S
N2            C3   1.344       .  A
N2           Cu8   2.072       .  S
C3            C4   1.380       .  A
C3            H6   1.082       .  S
C4            C5   1.385       .  A
C4          C707   1.474       .  S
C5            H7   1.082       .  S
Cu8          N11   2.072       .  S
Cu9          N19   2.079       .  S
Cu10         N12   2.073       .  S
Cu10         N18   2.073       .  S
N11          N12   1.323       .  A
N11          C15   1.345       .  A
N12          C13   1.346       .  A
C13          C14   1.381       .  A
C13          H16   1.082       .  S
C14          C15   1.379       .  A
C14         C705   1.437       .  S
C15          H17   1.082       .  S
N18          N19   1.324       .  A
N18          C22   1.345       .  A
N19          C20   1.346       .  A
C20          C21   1.380       .  A
C20          H23   1.082       .  S
C21          C22   1.378       .  A
C21         C711   1.437       .  S
C22          H24   1.082       .  S
N25          N26   1.323       .  A
N25          C29   1.345       .  A
N25         Cu33   2.076       .  S
N26          C27   1.347       .  A
N26         Cu32   2.084       .  S
C27          C28   1.383       .  A
C27          H30   1.082       .  S
C28          C29   1.385       .  A
C28         C701   1.478       .  S
C29          H31   1.082       .  S
Cu32         N35   2.084       .  S
Cu33         N43   2.075       .  S
Cu34         N36   2.068       .  S
Cu34         N42   2.068       .  S
N35          N36   1.323       .  A
N35          C39   1.348       .  A
N36          C37   1.344       .  A
C37          C38   1.378       .  A
C37          H40   1.082       .  S
C38          C39   1.382       .  A
C38         C700   1.439   1_554  S
C39          H41   1.082   1_554  S
N42          N43   1.323       .  A
N42          C46   1.345       .  A
N43          C44   1.346       .  A
C44          C45   1.380       .  A
C44          H47   1.082       .  S
C45          C46   1.379       .  A
C45         C712   1.437       .  S
C46          H48   1.082       .  S
N49          N50   1.323       .  A
N49          C53   1.347       .  A
N49         Cu57   2.081       .  S
N50          C51   1.344       .  A
N50         Cu56   2.075       .  S
C51          C52   1.381       .  A
C51          H54   1.082       .  S
C52          C53   1.386       .  A
C52         C694   1.476       .  S
C53          H55   1.082       .  S
Cu56         N59   2.075       .  S
Cu57         N67   2.082       .  S
Cu58         N60   2.076       .  S
Cu58         N66   2.077       .  S
N59          N60   1.323       .  A
N59          C63   1.346       .  A
N60          C61   1.346       .  A
C61          C62   1.380       .  A
C61          H64   1.082       .  S
C62          C63   1.381       .  A
C62         C692   1.439       .  S
C63          H65   1.082       .  S
N66          N67   1.324       .  A
N66          C70   1.346       .  A
N67          C68   1.347       .  A
C68          C69   1.381       .  A
C68          H71   1.082       .  S
C69          C70   1.380       .  A
C69         C697   1.441       .  S
C70          H72   1.082       .  S
N73          N74   1.323       .  A
N73          C77   1.349       .  A
N73         Cu81   2.085       .  S
N74          C75   1.345       .  A
N74         Cu80   2.083       .  S
C75          C76   1.382       .  A
C75          H78   1.082       .  S
C76          C77   1.387       .  A
C76         C687   1.480       .  S
C77          H79   1.082       .  S
Cu80         N83   2.083       .  S
Cu81         N91   2.085       .  S
Cu82         N84   2.078       .  S
Cu82         N90   2.078       .  S
N83          N84   1.323       .  A
N83          C87   1.347       .  A
N84          C85   1.347       .  A
C85          C86   1.381       .  A
C85          H88   1.082       .  S
C86          C87   1.382       .  A
C86         C685   1.442       .  S
C87          H89   1.082       .  S
N90          N91   1.324       .  A
N90          C94   1.347       .  A
N91          C92   1.347       .  A
C92          C93   1.381       .  A
C92          H95   1.082       .  S
C93          C94   1.380       .  A
C93         C698   1.441       .  S
C94          H96   1.082       .  S
N97          N98   1.324       .  A
N97         C101   1.346       .  A
N97        Cu105   2.076       .  S
N98          C99   1.346       .  A
N98        Cu104   2.074       .  S
C99         C100   1.379       .  A
C99         H102   1.082       .  S
C100        C101   1.379       .  A
C100        C683   1.437       .  S
C101        H103   1.082       .  S
Cu104       N107   2.074       .  S
Cu105       N115   2.076       .  S
Cu106       N108   2.077       .  S
Cu106       N114   2.077       .  S
N107        N108   1.323       .  A
N107        C111   1.346       .  A
N108        C109   1.346       .  A
C109        C110   1.380       .  A
C109        H112   1.082       .  S
C110        C111   1.380       .  A
C110        C677   1.438       .  S
C111        H113   1.082       .  S
N114        N115   1.322       .  A
N114        C118   1.346       .  A
N115        C116   1.346       .  A
C116        C117   1.382       .  A
C116        H119   1.082       .  S
C117        C118   1.385       .  A
C117        C679   1.477       .  S
C118        H120   1.082       .  S
N121        N122   1.324       .  A
N121        C125   1.347       .  A
N121       Cu129   2.082       .  S
N122        C123   1.344       .  A
N122       Cu128   2.071       .  S
C123        C124   1.377       .  A
C123        H126   1.082       .  S
C124        C125   1.381       .  A
C124        C684   1.437       .  S
C125        H127   1.082       .  S
Cu128       N131   2.071       .  S
Cu129       N139   2.082       .  S
Cu130       N132   2.072       .  S
Cu130       N138   2.072       .  S
N131        N132   1.322       .  A
N131        C135   1.346       .  A
N132        C133   1.346       .  A
C133        C134   1.380       .  A
C133        H136   1.082       .  S
C134        C135   1.380       .  A
C134        C671   1.438       .  S
C135        H137   1.082       .  S
N138        N139   1.323       .  A
N138        C142   1.343       .  A
N139        C140   1.348       .  A
C140        C141   1.384       .  A
C140        H143   1.082       .  S
C141        C142   1.384       .  A
C141        C673   1.478       .  S
C142        H144   1.082       .  S
N145        N146   1.322       .  A
N145        C149   1.348       .  A
N145       Cu153   2.076       .  S
N146        C147   1.343       .  A
N146       Cu152   2.072       .  S
C147        C148   1.380       .  A
C147        H150   1.082       .  S
C148        C149   1.385       .  A
C148        C667   1.473       .  S
C149        H151   1.082       .  S
Cu152       N155   2.073   1_565  S
Cu153       N163   2.077       .  S
Cu154       N156   2.091       .  S
Cu154       N162   2.092   1_545  S
N155        N156   1.322       .  A
N155        C159   1.346       .  A
N156        C157   1.349       .  A
C157        C158   1.386       .  A
C157        H160   1.082       .  S
C158        C159   1.385       .  A
C158        C688   1.482       .  S
C159        H161   1.082       .  S
N162        N163   1.323       .  A
N162        C166   1.348   1_565  A
N163        C164   1.344       .  A
C164        C165   1.388       .  A
C164        H167   1.081       .  S
C165        C166   1.391   1_565  A
C165        C658   1.492       .  S
C166        H168   1.081       .  S
N169        N170   1.322       .  A
N169        C173   1.346       .  A
N169       Cu177   2.076       .  S
N170        C171   1.345       .  A
N170       Cu176   2.072   1_545  S
C171        C172   1.384       .  A
C171        H174   1.082       .  S
C172        C173   1.382       .  A
C172        C708   1.475       .  S
C173        H175   1.082       .  S
Cu176       N179   2.073       .  S
Cu177       N187   2.077   1_545  S
Cu178       N180   2.087       .  S
Cu178       N186   2.088       .  S
N179        N180   1.323       .  A
N179        C183   1.344       .  A
N180        C181   1.349       .  A
C181        C182   1.386       .  A
C181        H184   1.082       .  S
C182        C183   1.380       .  A
C182        C680   1.475       .  S
C183        H185   1.082       .  S
N186        N187   1.322       .  A
N186        C190   1.347       .  A
N187        C188   1.345   1_565  A
C188        C189   1.389   1_545  A
C188        H191   1.081       .  S
C189        C190   1.391       .  A
C189        C661   1.492       .  S
C190        H192   1.081       .  S
N193        N194   1.324       .  A
N193        C197   1.347       .  A
N193       Cu201   2.084       .  S
N194        C195   1.345       .  A
N194       Cu200   2.069       .  S
C195        C196   1.378       .  A
C195        H198   1.082       .  S
C196        C197   1.381       .  A
C196        C655   1.438       .  S
C197        H199   1.082       .  S
Cu200       N203   2.069       .  S
Cu201       N211   2.085       .  S
Cu202       N204   2.083       .  S
Cu202       N210   2.083       .  S
N203        N204   1.322       .  A
N203        C207   1.345       .  A
N204        C205   1.348       .  A
C205        C206   1.383       .  A
C205        H208   1.082   1_556  S
C206        C207   1.379       .  A
C206        C649   1.441   1_556  S
C207        H209   1.082       .  S
N210        N211   1.324       .  A
N210        C214   1.345       .  A
N211        C212   1.349       .  A
C212        C213   1.386       .  A
C212        H215   1.082       .  S
C213        C214   1.381       .  A
C213        C651   1.478       .  S
C214        H216   1.082       .  S
N217        N218   1.323       .  A
N217        C221   1.345       .  A
N217       Cu225   2.074       .  S
N218        C219   1.346       .  A
N218       Cu224   2.077       .  S
C219        C220   1.380       .  A
C219        H222   1.082       .  S
C220        C221   1.379       .  A
C220        C656   1.438       .  S
C221        H223   1.082       .  S
Cu224       N227   2.077       .  S
Cu225       N235   2.073       .  S
Cu226       N228   2.076       .  S
Cu226       N234   2.076       .  S
N227        N228   1.323       .  A
N227        C231   1.346       .  A
N228        C229   1.346       .  A
C229        C230   1.380       .  A
C229        H232   1.082       .  S
C230        C231   1.380       .  A
C230        C647   1.439       .  S
C231        H233   1.082       .  S
N234        N235   1.322       .  A
N234        C238   1.345       .  A
N235        C236   1.346       .  A
C236        C237   1.381       .  A
C236        H239   1.082       .  S
C237        C238   1.385       .  A
C237        C668   1.475       .  S
C238        H240   1.082       .  S
N241        N242   1.322       .  A
N241        C245   1.347       .  A
N241       Cu249   2.076       .  S
N242        C243   1.345       .  A
N242       Cu248   2.078   1_545  S
C243        C244   1.385       .  A
C243        H246   1.082       .  S
C244        C245   1.383       .  A
C244        C693   1.477       .  S
C245        H247   1.082       .  S
Cu248       N251   2.079   1_554  S
Cu249       N259   2.076   1_545  S
Cu250       N252   2.087       .  S
Cu250       N258   2.087   1_556  S
N251        N252   1.323       .  A
N251        C255   1.346       .  A
N252        C253   1.347       .  A
C253        C254   1.386       .  A
C253        H256   1.082       .  S
C254        C255   1.382       .  A
C254        C652   1.479       .  S
C255        H257   1.082       .  S
N258        N259   1.322       .  A
N258        C262   1.348       .  A
N259        C260   1.344   1_565  A
C260        C261   1.388   1_545  A
C260        H263   1.081       .  S
C261        C262   1.391       .  A
C261        C638   1.491       .  S
C262        H264   1.081   1_554  S
N265        N266   1.321       .  A
N265        C269   1.348       .  A
N265       Cu273   2.083       .  S
N266        C267   1.343       .  A
N266       Cu272   2.066   1_545  S
C267        C268   1.380       .  A
C267        H270   1.082       .  S
C268        C269   1.387       .  A
C268        C702   1.476       .  S
C269        H271   1.082       .  S
Cu272       N275   2.066       .  S
Cu273       N283   2.084       .  S
Cu274       N276   2.085       .  S
Cu274       N282   2.085       .  S
N275        N276   1.323   1_554  A
N275        C279   1.342   1_554  A
N276        C277   1.349       .  A
C277        C278   1.387       .  A
C277        H280   1.082       .  S
C278        C279   1.378       .  A
C278        C674   1.473       .  S
C279        H281   1.082   1_556  S
N282        N283   1.323   1_566  A
N282        C286   1.348       .  A
N283        C284   1.344       .  A
C284        C285   1.388   1_545  A
C284        H287   1.081       .  S
C285        C286   1.389   1_554  A
C285        C641   1.490       .  S
C286        H288   1.081       .  S
N289        N290   1.322       .  A
N289        C293   1.347       .  A
N289       Cu297   2.077       .  S
N290        C291   1.344       .  A
N290       Cu296   2.069       .  S
C291        C292   1.380       .  A
C291        H294   1.082       .  S
C292        C293   1.385       .  A
C292        C631   1.472       .  S
C293        H295   1.082       .  S
Cu296       N299   2.069       .  S
Cu297       N307   2.078       .  S
Cu298       N300   2.078       .  S
Cu298       N306   2.079       .  S
N299        N300   1.323       .  A
N299        C303   1.345       .  A
N300        C301   1.346       .  A
C301        C302   1.381       .  A
C301        H304   1.082       .  S
C302        C303   1.378       .  A
C302        C706   1.437       .  S
C303        H305   1.082       .  S
N306        N307   1.324       .  A
N306        C310   1.346       .  A
N307        C308   1.346       .  A
C308        C309   1.380       .  A
C308        H311   1.082       .  S
C309        C310   1.380       .  A
C309        C635   1.439       .  S
C310        H312   1.082       .  S
N313        N314   1.323       .  A
N313        C317   1.346       .  A
N313       Cu321   2.079       .  S
N314        C315   1.347       .  A
N314       Cu320   2.082       .  S
C315        C316   1.383       .  A
C315        H318   1.082       .  S
C316        C317   1.385       .  A
C316        C627   1.479       .  S
C317        H319   1.082       .  S
Cu320       N323   2.082       .  S
Cu321       N331   2.079       .  S
Cu322       N324   2.074       .  S
Cu322       N330   2.074       .  S
N323        N324   1.324       .  A
N323        C327   1.347       .  A
N324        C325   1.346       .  A
C325        C326   1.379       .  A
C325        H328   1.082       .  S
C326        C327   1.381       .  A
C326        C699   1.439       .  S
C327        H329   1.082       .  S
N330        N331   1.323       .  A
N330        C334   1.346       .  A
N331        C332   1.346       .  A
C332        C333   1.381       .  A
C332        H335   1.082       .  S
C333        C334   1.380       .  A
C333        C636   1.439       .  S
C334        H336   1.082       .  S
N337        N338   1.323       .  A
N337        C341   1.347       .  A
N337       Cu345   2.077       .  S
N338        C339   1.346       .  A
N338       Cu344   2.079       .  S
C339        C340   1.380       .  A
C339        H342   1.082       .  S
C340        C341   1.381       .  A
C340        C625   1.440       .  S
C341        H343   1.082       .  S
Cu344       N347   2.078       .  S
Cu345       N355   2.075       .  S
Cu346       N348   2.070       .  S
Cu346       N354   2.069       .  S
N347        N348   1.323       .  A
N347        C351   1.346       .  A
N348        C349   1.345       .  A
C349        C350   1.379       .  A
C349        H352   1.082       .  S
C350        C351   1.381       .  A
C350        C678   1.438       .  S
C351        H353   1.082       .  S
N354        N355   1.322       .  A
N354        C358   1.344       .  A
N355        C356   1.345       .  A
C356        C357   1.384       .  A
C356        H359   1.082       .  S
C357        C358   1.380       .  A
C357        C621   1.472       .  S
C358        H360   1.082       .  S
N361        N362   1.324       .  A
N361        C365   1.347       .  A
N361       Cu369   2.088       .  S
N362        C363   1.346       .  A
N362       Cu368   2.075       .  S
C363        C364   1.379       .  A
C363        H366   1.082       .  S
C364        C365   1.382       .  A
C364        C626   1.440       .  S
C365        H367   1.082       .  S
Cu368       N371   2.074       .  S
Cu369       N379   2.088       .  S
Cu370       N372   2.076       .  S
Cu370       N378   2.076       .  S
N371        N372   1.323       .  A
N371        C375   1.346       .  A
N372        C373   1.346       .  A
C373        C374   1.380       .  A
C373        H376   1.082       .  S
C374        C375   1.380       .  A
C374        C672   1.438       .  S
C375        H377   1.082       .  S
N378        N379   1.323       .  A
N378        C382   1.346       .  A
N379        C380   1.348       .  A
C380        C381   1.385       .  A
C380        H383   1.082       .  S
C381        C382   1.385       .  A
C381        C618   1.481       .  S
C382        H384   1.082       .  S
N385        N386   1.323       .  A
N385        C389   1.345       .  A
N385       Cu393   2.074       .  S
N386        C387   1.346       .  A
N386       Cu392   2.080       .  S
C387        C388   1.386       .  A
C387        H390   1.082       .  S
C388        C389   1.380       .  A
C388        C611   1.475       .  S
C389        H391   1.082       .  S
Cu392       N395   2.080       .  S
Cu393       N403   2.074       .  S
Cu394       N396   2.078       .  S
Cu394       N402   2.078       .  S
N395        N396   1.323       .  A
N395        C399   1.347       .  A
N396        C397   1.346       .  A
C397        C398   1.380       .  A
C397        H400   1.082       .  S
C398        C399   1.382       .  A
C398        C686   1.442       .  S
C399        H401   1.082       .  S
N402        N403   1.323       .  A
N402        C406   1.346       .  A
N403        C404   1.347       .  A
C404        C405   1.381       .  A
C404        H407   1.082       .  S
C405        C406   1.380       .  A
C405        C615   1.440       .  S
C406        H408   1.082       .  S
N409        N410   1.323       .  A
N409        C413   1.347       .  A
N409       Cu417   2.081       .  S
N410        C411   1.345       .  A
N410       Cu416   2.074       .  S
C411        C412   1.379       .  A
C411        H414   1.082       .  S
C412        C413   1.382       .  A
C412        C616   1.440       .  S
C413        H415   1.082       .  S
Cu416       N419   2.074       .  S
Cu417       N427   2.081       .  S
Cu418       N420   2.077       .  S
Cu418       N426   2.077       .  S
N419        N420   1.323       .  A
N419        C423   1.345       .  A
N420        C421   1.347       .  A
C421        C422   1.381       .  A
C421        H424   1.082   1_556  S
C422        C423   1.380       .  A
C422        C691   1.439       .  S
C423        H425   1.082       .  S
N426        N427   1.323       .  A
N426        C430   1.345       .  A
N427        C428   1.347       .  A
C428        C429   1.382       .  A
C428        H431   1.082       .  S
C429        C430   1.384       .  A
C429        C607   1.477       .  S
C430        H432   1.082       .  S
N433        N434   1.322       .  A
N433        C437   1.347       .  A
N433       Cu441   2.075       .  S
N434        C435   1.343       .  A
N434       Cu440   2.070       .  S
C435        C436   1.383       .  A
C435        H438   1.082       .  S
C436        C437   1.382       .  A
C436        C632   1.474       .  S
C437        H439   1.082       .  S
Cu440       N443   2.069       .  S
Cu441       N451   2.076       .  S
Cu442       N444   2.069       .  S
Cu442       N450   2.070       .  S
N443        N444   1.322       .  A
N443        C447   1.344       .  A
N444        C445   1.345       .  A
C445        C446   1.381       .  A
C445        H448   1.082       .  S
C446        C447   1.383       .  A
C446        C622   1.472       .  S
C447        H449   1.082       .  S
N450        N451   1.322       .  A
N450        C454   1.343       .  A
N451        C452   1.345       .  A
C452        C453   1.388       .  A
C452        H455   1.081       .  S
C453        C454   1.387       .  A
C453        C598   1.484       .  S
C454        H456   1.081       .  S
N457        N458   1.323       .  A
N457        C461   1.344       .  A
N457       Cu465   2.071       .  S
N458        C459   1.348       .  A
N458       Cu464   2.084       .  S
C459        C460   1.387       .  A
C459        H462   1.082       .  S
C460        C461   1.380       .  A
C460        C593   1.477       .  S
C461        H463   1.082       .  S
Cu464       N467   2.084       .  S
Cu465       N475   2.070       .  S
Cu466       N468   2.068       .  S
Cu466       N474   2.067       .  S
N467        N468   1.323       .  A
N467        C471   1.347       .  A
N468        C469   1.343       .  A
C469        C470   1.379       .  A
C469        H472   1.082       .  S
C470        C471   1.386       .  A
C470        C612   1.474       .  S
C471        H473   1.082       .  S
N474        N475   1.319       .  A
N474        C478   1.344       .  A
N475        C476   1.343       .  A
C476        C477   1.389       .  A
C476        H479   1.081       .  S
C477        C478   1.389       .  A
C477        C601   1.487       .  S
C478        H480   1.081       .  S
N481        N482   1.324       .  A
N481        C485   1.347       .  A
N481       Cu489   2.082       .  S
N482        C483   1.347       .  A
N482       Cu488   2.080       .  S
C483        C484   1.381       .  A
C483        H486   1.082       .  S
C484        C485   1.381       .  A
C484        C592   1.441       .  S
C485        H487   1.082       .  S
Cu488       N491   2.079       .  S
Cu489       N499   2.082       .  S
Cu490       N492   2.074       .  S
Cu490       N498   2.074       .  S
N491        N492   1.323       .  A
N491        C495   1.347       .  A
N492        C493   1.345       .  A
C493        C494   1.379       .  A
C493        H496   1.082       .  S
C494        C495   1.381       .  A
C494        C648   1.439       .  S
C495        H497   1.082       .  S
N498        N499   1.322       .  A
N498        C502   1.345       .  A
N499        C500   1.347       .  A
C500        C501   1.387       .  A
C500        H503   1.082       .  S
C501        C502   1.381       .  A
C501        C594   1.478       .  S
C502        H504   1.082       .  S
N505        N506   1.324       .  A
N505        C509   1.345       .  A
N505       Cu513   2.083       .  S
N506        C507   1.348       .  A
N506       Cu512   2.086       .  S
C507        C508   1.386       .  A
C507        H510   1.082       .  S
C508        C509   1.382       .  A
C508        C588   1.478       .  S
C509        H511   1.082       .  S
Cu512       N515   2.086       .  S
Cu513       N523   2.083       .  S
Cu514       N516   2.073       .  S
Cu514       N522   2.073       .  S
N515        N516   1.324       .  A
N515        C519   1.348       .  A
N516        C517   1.345       .  A
C517        C518   1.379       .  A
C517        H520   1.082       .  S
C518        C519   1.383       .  A
C518        C650   1.441       .  S
C519        H521   1.082       .  S
N522        N523   1.323       .  A
N522        C526   1.346       .  A
N523        C524   1.348       .  A
C524        C525   1.382       .  A
C524        H527   1.082       .  S
C525        C526   1.380       .  A
C525        C591   1.441       .  S
C526        H528   1.082       .  S
N529        N530   1.322   1_556  A
N529        C533   1.347       .  A
N529       Cu537   2.080       .  S
N530        C531   1.344   1_554  A
N530       Cu536   2.071       .  S
C531        C532   1.380       .  A
C531        H534   1.082   1_556  S
C532        C533   1.386       .  A
C532        C608   1.475       .  S
C533        H535   1.082       .  S
Cu536       N539   2.071       .  S
Cu537       N547   2.081       .  S
Cu538       N540   2.090       .  S
Cu538       N546   2.090       .  S
N539        N540   1.322       .  A
N539        C543   1.344       .  A
N540        C541   1.349       .  A
C541        C542   1.386       .  A
C541        H544   1.082       .  S
C542        C543   1.384       .  A
C542        C587   1.481       .  S
C543        H545   1.082       .  S
N546        N547   1.323   1_554  A
N546        C550   1.347       .  A
N547        C548   1.346       .  A
C548        C549   1.388   1_556  A
C548        H551   1.081       .  S
C549        C550   1.390       .  A
C549        C578   1.490       .  S
C550        H552   1.081       .  S
N553        N554   1.322       .  A
N553        C557   1.348       .  A
N553       Cu561   2.082       .  S
N554        C555   1.345       .  A
N554       Cu560   2.077       .  S
C555        C556   1.381       .  A
C555        H558   1.082       .  S
C556        C557   1.386       .  A
C556        C628   1.477       .  S
C557        H559   1.082       .  S
Cu560       N563   2.077       .  S
Cu561       N571   2.083       .  S
Cu562       N564   2.088       .  S
Cu562       N570   2.088       .  S
N563        N564   1.323   1_556  A
N563        C567   1.345       .  A
N564        C565   1.349       .  A
C565        C566   1.387       .  A
C565        H568   1.082       .  S
C566        C567   1.381   1_554  A
C566        C617   1.478       .  S
C567        H569   1.082       .  S
N570        N571   1.323   1_554  A
N570        C574   1.347       .  A
N571        C572   1.346       .  A
C572        C573   1.389   1_556  A
C572        H575   1.081       .  S
C573        C574   1.390       .  A
C573        C581   1.491       .  S
C574        H576   1.081       .  S
C577        C578   1.406   1_455  A
C577        C582   1.400       .  A
C577        H583   1.082   1_455  S
C578        C579   1.407   1_654  A
C579        C580   1.401       .  A
C579        H584   1.082   1_455  S
C580        C581   1.407   1_556  A
C580        H585   1.082       .  S
C581        C582   1.407       .  A
C582        H586   1.082       .  S
C587        C588   1.345       .  D
C587        H589   1.086       .  S
C588        H590   1.087       .  S
C591        C592   1.208       .  T
C593        C594   1.342       .  D
C593        H595   1.086       .  S
C594        H596   1.086       .  S
C597        C598   1.405       .  A
C597        C602   1.396       .  A
C597        H603   1.081       .  S
C598        C599   1.405       .  A
C599        C600   1.398       .  A
C599        H604   1.082       .  S
C600        C601   1.407       .  A
C600        H605   1.081       .  S
C601        C602   1.406       .  A
C602        H606   1.081       .  S
C607        C608   1.342       .  D
C607        H609   1.086       .  S
C608        H610   1.086       .  S
C611        C612   1.341       .  D
C611        H613   1.086       .  S
C612        H614   1.086       .  S
C615        C616   1.208       .  T
C617        C618   1.344       .  D
C617        H619   1.086       .  S
C618        H620   1.086       .  S
C621        C622   1.341       .  D
C621        H623   1.087       .  S
C622        H624   1.086       .  S
C625        C626   1.208       .  T
C627        C628   1.343       .  D
C627        H629   1.086       .  S
C628        H630   1.086       .  S
C631        C632   1.341       .  D
C631        H633   1.087       .  S
C632        H634   1.087       .  S
C635        C636   1.207       .  T
C637        C638   1.406   1_545  A
C637        C642   1.397       .  A
C637        H643   1.081       .  S
C638        C639   1.408   1_554  A
C639        C640   1.403       .  A
C639        H644   1.082       .  S
C640        C641   1.407   1_556  A
C640        H645   1.082       .  S
C641        C642   1.405   1_565  A
C642        H646   1.081       .  S
C647        C648   1.207       .  T
C649        C650   1.208       .  T
C651        C652   1.343       .  D
C651        H653   1.086       .  S
C652        H654   1.087       .  S
C655        C656   1.206       .  T
C657        C658   1.407       .  A
C657        C662   1.399   1_655  A
C657        H663   1.081       .  S
C658        C659   1.406   1_565  A
C659        C660   1.401   1_655  A
C659        H664   1.081       .  S
C660        C661   1.408   1_545  A
C660        H665   1.081       .  S
C661        C662   1.406       .  A
C662        H666   1.081       .  S
C667        C668   1.341       .  D
C667        H669   1.087       .  S
C668        H670   1.086       .  S
C671        C672   1.207   1_556  T
C673        C674   1.342       .  D
C673        H675   1.086       .  S
C674        H676   1.086       .  S
C677        C678   1.206       .  T
C679        C680   1.342       .  D
C679        H681   1.086       .  S
C680        H682   1.087       .  S
C683        C684   1.206       .  T
C685        C686   1.209       .  T
C687        C688   1.345       .  D
C687        H689   1.086       .  S
C688        H690   1.086       .  S
C691        C692   1.207   1_556  T
C693        C694   1.342       .  D
C693        H695   1.086       .  S
C694        H696   1.087       .  S
C697        C698   1.208       .  T
C699        C700   1.207       .  T
C701        C702   1.343       .  D
C701        H703   1.086       .  S
C702        H704   1.086       .  S
C705        C706   1.206       .  T
C707        C708   1.341       .  D
C707        H709   1.087       .  S
C708        H710   1.087       .  S
C711        C712   1.206       .  T
