geometry optimzed in LAMMPS
_audit_creation_date              2020-11-30 
_audit_creation_method            'lammps2cif' 
_symmetry_space_group_name_H-M    'P1' 
_symmetry_Int_Tables_number       1 
_symmetry_cell_setting            triclinic 
loop_ 
_symmetry_equiv_pos_as_xyz 
  x,y,z 
_cell_length_a                    45.26904813 
_cell_length_b                    45.64247186235487 
_cell_length_c                    33.45359277398741 
_cell_angle_alpha                 90.13522028890148 
_cell_angle_beta                  89.82396795246926 
_cell_angle_gamma                 121.0767855850432 
loop_ 
_atom_site_label 
_atom_site_type_symbol 
_atom_site_fract_x 
_atom_site_fract_y 
_atom_site_fract_z 
_atom_site_charge 
C1          C  0.33356610  0.16908281  0.71304433     0.46300
H2          H  0.33027506  0.16637134  0.68027374    -0.02700
C3          C  0.33558538  0.16897142  0.78986491     0.46400
H4          H  0.33592196  0.16827694  0.82277023    -0.02700
C5          C  0.35803867  0.20598554  0.73058543    -0.16400
C6          C  0.29742528  0.15373726  0.73281163    -0.16100
C7          C  0.34841264  0.14808105  0.72870019    -0.16500
C8          C  0.35583809  0.20557958  0.77259706    -0.16500
C9          C  0.29865724  0.15432452  0.77414507    -0.16000
C10         C  0.35035466  0.14835834  0.76951649    -0.16400
C11         C  0.16246996  0.33792675  0.28754683     0.42500
H12         H  0.16370673  0.33898255  0.32055466    -0.02700
C13         C  0.15953547  0.33514791  0.21015183     0.46400
H14         H  0.15808435  0.33362892  0.17716835    -0.02700
C15         C  0.19851808  0.35488737  0.26757220    -0.16400
C16         C  0.14232163  0.30091707  0.27117878    -0.16100
C17         C  0.14460122  0.35616130  0.26962277    -0.16500
C18         C  0.19684934  0.35438151  0.22630780    -0.16500
C19         C  0.14181326  0.29951662  0.22998627    -0.16000
C20         C  0.14220323  0.35378844  0.22829616    -0.16400
O21         O  0.43074873  0.49715135  0.04959938    -0.77600
C22         C  0.03745324  0.07833532  0.06944873     0.83400
O23         O  0.47268418  0.02669200  0.91862084    -0.78700
O24         O  0.07942949  0.04576565  0.97516372    -0.80200
O25         O  0.99921040  0.44212159  0.05479876    -0.80000
O26         O  0.42793557  0.44703030  0.05435556    -0.78600
Zn27       Zn  0.47492880  0.02831036  0.01946664     1.55700
O28         O  0.05137723  0.48925088  0.05225559    -0.80000
Cd29       Cd  0.46926807  0.45467419  0.02073306     1.59700
Cd30       Cd  0.49698450  0.00240633  0.94108034     1.59600
O31         O  0.44906989  0.42048314  0.97405228    -0.80000
O32         O  0.49606413  0.00286092  0.00087569    -1.90500
Cd33       Cd  0.04404079  0.02447127  0.02160460     1.59900
O34         O  0.46937274  0.45275194  0.91937979    -0.80000
O35         O  0.05420495  0.06377509  0.06054505    -0.78600
C36         C  0.46105518  0.04386973  0.93522847     0.83900
C37         C  0.41586542  0.46623371  0.06151785     0.83600
O38         O  0.00731298  0.06755045  0.05561664    -0.77600
C39         C  0.03115105  0.45847527  0.06364922     0.84400
O40         O  0.46197742  0.04749571  0.97305433    -0.77700
C41         C  0.45155013  0.42363849  0.93620345     0.84500
C42         C  0.07676031  0.04433937  0.93716467     0.84800
O43         O  0.04760274  0.02787019  0.91956472    -0.80100
O44         O  0.06287250  0.01417414  0.55424355    -0.77600
C45         C  0.45979003  0.42220437  0.56050157     0.83400
O46         O  0.02588510  0.48257792  0.41727899    -0.78700
O47         O  0.41486682  0.45819541  0.47086045    -0.80200
O48         O  0.48460109  0.05636221  0.55643058    -0.80000
O49         O  0.06366316  0.06306556  0.55520337    -0.78600
Zn50       Zn  0.02299681  0.48174193  0.51915602     1.55700
O51         O  0.43612416  0.00502636  0.55463564    -0.80000
Cd52       Cd  0.01975562  0.05062937  0.52188409     1.59700
Cd53       Cd  0.49850889  0.00419105  0.43991189     1.59600
O54         O  0.03532700  0.08563707  0.47558440    -0.80000
O55         O  0.49777672  0.00289328  0.49999906    -1.90500
Cd56       Cd  0.44859556  0.47563984  0.51876132     1.59900
O57         O  0.02137230  0.05448312  0.41975307    -0.80000
O58         O  0.43975504  0.43267844  0.55001795    -0.78600
C59         C  0.04181591  0.46992920  0.43472768     0.83900
C60         C  0.07684489  0.04528160  0.56522399     0.83600
O61         O  0.49171542  0.43900180  0.55121496    -0.77600
C62         C  0.45303053  0.03619699  0.56590155     0.84400
O63         O  0.04286808  0.46849474  0.47273772    -0.77700
C64         C  0.03421978  0.08330410  0.43755795     0.84500
C65         C  0.41879243  0.46027428  0.43301781     0.84800
O66         O  0.44864916  0.47656177  0.41691547    -0.80100
C67         C  0.10422051  0.16575269  0.11153354    -0.04600
C68         C  0.08444021  0.17146386  0.13967404     0.09600
C69         C  0.04977532  0.14568263  0.14663016    -0.02000
C70         C  0.03453199  0.11493625  0.12444276    -0.00200
C71         C  0.05403376  0.10948056  0.09536169    -0.03800
C72         C  0.08934087  0.13475497  0.08998955     0.03200
C73         C  0.10002901  0.20476275  0.16192162     0.10000
C74         C  0.02980530  0.15093294  0.17674862     0.35900
C75         C  0.11056960  0.12942811  0.06181006     0.39300
C76         C  0.09008747  0.22859039  0.15281224    -0.04200
C77         C  0.10383257  0.25950169  0.17449071     0.02900
C78         C  0.12778584  0.26698385  0.20587765    -0.03800
C79         C  0.13892663  0.24353797  0.21339302     0.00000
C80         C  0.12478311  0.21253312  0.19190647    -0.02600
C81         C  0.06552764  0.22116053  0.12087389     0.36700
C82         C  0.16610158  0.25141513  0.24182318     0.40300
C83         C  0.09203506  0.28268311  0.16468069     0.39400
C84         C  0.13611512  0.18865116  0.20023040     0.36300
C85         C  0.13991344  0.19207740  0.10429185     0.37000
C86         C  0.99906055  0.08854394  0.13261693     0.40300
N87         N  0.08160229  0.30010581  0.15558366    -0.37800
N88         N  0.04583374  0.21509376  0.09552428    -0.39400
N89         N  0.18744581  0.25620698  0.26440613    -0.37100
N90         N  0.14541826  0.16975790  0.20635634    -0.39500
N91         N  0.01399731  0.15536375  0.20068499    -0.39300
N92         N  0.97078760  0.06752670  0.13928550    -0.36900
N93         N  0.12776068  0.12508854  0.03985903    -0.38000
N94         N  0.16844038  0.21292354  0.09865898    -0.39600
C95         C  0.32219574  0.43303289  0.08779960    -0.04600
C96         C  0.32090510  0.42218918  0.12756417     0.09600
C97         C  0.35091948  0.42630544  0.14571412    -0.02000
C98         C  0.38206864  0.44094375  0.12412245    -0.00200
C99         C  0.38341759  0.45188519  0.08441150    -0.03800
C100        C  0.35339382  0.44771917  0.06615120     0.03200
C101        C  0.28777402  0.40563995  0.15036361     0.10000
C102        C  0.34965286  0.41527638  0.18660955     0.35900
C103        C  0.35416815  0.45683290  0.02448060     0.39300
C104        C  0.26278613  0.37108937  0.14357389    -0.04200
C105        C  0.23221076  0.35492475  0.16648073     0.02900
C106        C  0.22771463  0.37244894  0.19896015    -0.03800
C107        C  0.25254834  0.40775895  0.20436600     0.00000
C108        C  0.28189410  0.42429908  0.17948753    -0.02600
C109        C  0.26893404  0.35200216  0.11324803     0.36700
C110        C  0.24777535  0.42802371  0.23415237     0.40300
C111        C  0.20612176  0.32017861  0.15609688     0.39400
C112        C  0.30589251  0.46086085  0.18309855     0.36300
C113        C  0.29131229  0.42876018  0.06918348     0.37000
C114        C  0.41280524  0.44482365  0.14277392     0.40300
N115        N  0.18612355  0.29279223  0.14556539    -0.37800
N116        N  0.27395349  0.33683768  0.08914657    -0.39400
N117        N  0.24550142  0.44528347  0.25781084    -0.37100
N118        N  0.32486482  0.49006898  0.18548937    -0.39500
N119        N  0.34873907  0.40666880  0.21930710    -0.39300
N120        N  0.43733669  0.44784488  0.15748654    -0.36900
N121        N  0.35466050  0.46372252  0.99111678    -0.38000
N122        N  0.26659663  0.42523061  0.05440052    -0.39600
C123        C  0.07419071  0.37351994  0.18967839    -0.04600
C124        C  0.09130413  0.39475837  0.15676086     0.09600
C125        C  0.12398185  0.40103843  0.14553819    -0.02000
C126        C  0.14016667  0.38699928  0.16779277    -0.00200
C127        C  0.12395698  0.36682263  0.20245406    -0.03800
C128        C  0.09000569  0.35908628  0.21197246     0.03200
C129        C  0.07487219  0.41056709  0.13353241     0.10000
C130        C  0.14116379  0.42249609  0.11099784     0.35900
C131        C  0.07004328  0.33483009  0.24315406     0.39300
C132        C  0.08326025  0.44423520  0.14217853    -0.04200
C133        C  0.06810008  0.45940114  0.12021542     0.02900
C134        C  0.04531679  0.44142046  0.08831949    -0.03800
C135        C  0.03674841  0.40746383  0.07988960     0.00000
C136        C  0.05164900  0.39221764  0.10235752    -0.02600
C137        C  0.10825999  0.46359126  0.17310342     0.36700
C138        C  0.01329016  0.38835331  0.04754511     0.40300
C139        C  0.07489167  0.49302304  0.13166745     0.39400
C140        C  0.04401316  0.35798661  0.09270834     0.36300
C141        C  0.04007794  0.36651796  0.20051415     0.37000
C142        C  0.17372772  0.39442415  0.15423815     0.40300
N143        N  0.08028198  0.01988685  0.14068082    -0.37800
N144        N  0.12857775  0.47920340  0.19737131    -0.39400
N145        N  0.99445155  0.37295236  0.02190557    -0.37100
N146        N  0.03819039  0.33077115  0.08502601    -0.39500
N147        N  0.15485578  0.43967380  0.08356469    -0.39300
N148        N  0.20000566  0.40111400  0.14065070    -0.36900
N149        N  0.05316240  0.31575958  0.26787304    -0.38000
N150        N  0.01287073  0.36097519  0.20905249    -0.39600
C151        C  0.07315438  0.21405686  0.31468255    -0.04600
C152        C  0.09160650  0.20920918  0.34506660     0.09600
C153        C  0.12549155  0.23544660  0.35382023    -0.02000
C154        C  0.14196967  0.26543265  0.33035565    -0.00200
C155        C  0.12432659  0.26984355  0.29801051    -0.03800
C156        C  0.08906644  0.24441301  0.29181589     0.03200
C157        C  0.07560471  0.17629211  0.36790907     0.10000
C158        C  0.14331622  0.23152056  0.38749838     0.35900
C159        C  0.06801199  0.24981079  0.26379150     0.39300
C160        C  0.08315497  0.15094244  0.35721824    -0.04200
C161        C  0.06983797  0.12067608  0.37995860     0.02900
C162        C  0.04831208  0.11525191  0.41337420    -0.03800
C163        C  0.04076216  0.14082135  0.42393204     0.00000
C164        C  0.05440006  0.17117422  0.40127306    -0.02600
C165        C  0.10522809  0.15641317  0.32306904     0.36700
C166        C  0.01873510  0.13598238  0.45794503     0.40300
C167        C  0.07999764  0.09610580  0.37018279     0.39400
C168        C  0.04702296  0.19747866  0.41249205     0.36300
C169        C  0.03742844  0.18789702  0.30749979     0.37000
C170        C  0.17745443  0.29073623  0.33955756     0.40300
N171        N  0.08835997  0.07668519  0.36250700    -0.37800
N172        N  0.12294128  0.16093565  0.29588805    -0.39400
N173        N  0.50140915  0.13234759  0.48518279    -0.37100
N174        N  0.04121417  0.21853791  0.42131451    -0.39500
N175        N  0.15732918  0.22842602  0.41456803    -0.39300
N176        N  0.20568067  0.30982825  0.34870219    -0.36900
N177        N  0.05001450  0.25280773  0.24190234    -0.38000
N178        N  0.00886701  0.16715260  0.30196988    -0.39600
C179        C  0.26919946  0.40567470  0.34609120    -0.04600
C180        C  0.29367440  0.39650547  0.33679056     0.09600
C181        C  0.28689011  0.37297106  0.30586005    -0.02000
C182        C  0.25618820  0.35939440  0.28329406    -0.00200
C183        C  0.23151924  0.36915328  0.29163711    -0.03800
C184        C  0.23817349  0.39184824  0.32422813     0.03200
C185        C  0.32670419  0.41185810  0.35992121     0.10000
C186        C  0.31149568  0.36230683  0.29778470     0.35900
C187        C  0.21395322  0.40210983  0.33569561     0.39300
C188        C  0.32967573  0.39431217  0.39283385    -0.04200
C189        C  0.35995744  0.40978238  0.41622707     0.02900
C190        C  0.38749819  0.44321028  0.40707844    -0.03800
C191        C  0.38456914  0.46045844  0.37355466     0.00000
C192        C  0.35438040  0.44471781  0.35000806    -0.02600
C193        C  0.30128026  0.36040114  0.40281649     0.36700
C194        C  0.41186764  0.49507254  0.36422699     0.40300
C195        C  0.36288624  0.39087265  0.44925777     0.39400
C196        C  0.35140623  0.46250106  0.31578753     0.36300
C197        C  0.27615816  0.42960221  0.37851599     0.37000
C198        C  0.25003486  0.33419087  0.25297274     0.40300
N199        N  0.36519722  0.37577251  0.47559114    -0.37800
N200        N  0.27859647  0.33334216  0.41066995    -0.39400
N201        N  0.43361032  0.52271791  0.35685302    -0.37100
N202        N  0.34883887  0.47653082  0.28846400    -0.39500
N203        N  0.33106759  0.35371875  0.29153033    -0.39300
N204        N  0.24691778  0.31455735  0.22889311    -0.36900
N205        N  0.19581953  0.41123544  0.34686430    -0.38000
N206        N  0.28185182  0.44874659  0.40429718    -0.39600
C207        C  0.10138510  0.37772223  0.35503143    -0.04600
C208        C  0.10780485  0.41013474  0.34360830     0.09600
C209        C  0.12811500  0.42603960  0.30952536    -0.02000
C210        C  0.14151996  0.40942338  0.28657491    -0.00200
C211        C  0.13255666  0.37531836  0.29570148    -0.03800
C212        C  0.11261678  0.35992664  0.33078948     0.03200
C213        C  0.09134959  0.42650768  0.36633614     0.10000
C214        C  0.13502384  0.45964191  0.29802463     0.35900
C215        C  0.10158143  0.32508902  0.34180018     0.39300
C216        C  0.11079649  0.45380660  0.39307467    -0.04200
C217        C  0.09490054  0.46888042  0.41427063     0.02900
C218        C  0.05914120  0.45583165  0.41018444    -0.03800
C219        C  0.03974118  0.42854495  0.38336789     0.00000
C220        C  0.05585145  0.41419655  0.36128584    -0.02600
C221        C  0.14701958  0.46594487  0.39928392     0.36700
C222        C  0.50291835  0.41441269  0.37947434     0.40300
C223        C  0.11566246  0.49890546  0.43876015     0.39400
C224        C  0.03584302  0.38638855  0.33354447     0.36300
C225        C  0.08284338  0.36256598  0.39198463     0.37000
C226        C  0.16558749  0.42853955  0.25476545     0.40300
N227        N  0.13236356  0.02334434  0.45762803    -0.37800
N228        N  0.17588803  0.47552059  0.40439136    -0.39400
N229        N  0.47352688  0.40310669  0.37633730    -0.37100
N230        N  0.02006497  0.36412023  0.31146347    -0.39500
N231        N  0.14040680  0.48645962  0.28915842    -0.39300
N232        N  0.18449285  0.44480467  0.22953257    -0.36900
N233        N  0.09164559  0.29744019  0.35246296    -0.38000
N234        N  0.06827123  0.35065056  0.42157816    -0.39600
C235        C  0.36689701  0.08156826  0.81718407    -0.04600
C236        C  0.39886135  0.10263886  0.83598279     0.09600
C237        C  0.41587899  0.13824788  0.83101213    -0.02000
C238        C  0.40079942  0.15280991  0.80780539    -0.00200
C239        C  0.36730459  0.13224995  0.79170014    -0.03800
C240        C  0.35106076  0.09621985  0.79529434     0.03200
C241        C  0.41473325  0.08741171  0.86123794     0.10000
C242        C  0.44913000  0.15997275  0.84991966     0.35900
C243        C  0.31809735  0.07363491  0.77678776     0.39300
C244        C  0.44161033  0.08365027  0.84592014    -0.04200
C245        C  0.45703000  0.06988098  0.87001419     0.02900
C246        C  0.44549905  0.05950023  0.90990924    -0.03800
C247        C  0.41854179  0.06371778  0.92513902     0.00000
C248        C  0.40355354  0.07785164  0.90094388    -0.02600
C249        C  0.45393092  0.09473393  0.80545737     0.36700
C250        C  0.40532293  0.05294470  0.96538923     0.40300
C251        C  0.48545051  0.06748006  0.85365146     0.39400
C252        C  0.37681007  0.08310489  0.91705713     0.36300
C253        C  0.35042512  0.04468544  0.82037362     0.37000
C254        C  0.42128025  0.18883993  0.79926844     0.40300
N255        N  0.00796361  0.06545180  0.84042757    -0.37800
N256        N  0.46406530  0.10392051  0.77336858    -0.39400
N257        N  0.39474699  0.04459828  0.99751389    -0.37100
N258        N  0.35557901  0.08743729  0.92985266    -0.39500
N259        N  0.47560869  0.17725223  0.86500141    -0.39300
N260        N  0.43964935  0.21776219  0.79406195    -0.36900
N261        N  0.29200631  0.05393584  0.76253904    -0.38000
N262        N  0.33743363  0.01528449  0.82287189    -0.39600
C263        C  0.43618816  0.35644613  0.85837508    -0.04600
C264        C  0.40254083  0.32985630  0.86801309     0.09600
C265        C  0.38426234  0.33455187  0.89911739    -0.02000
C266        C  0.39971528  0.36566117  0.92061033    -0.00200
C267        C  0.43371382  0.39220381  0.91121619    -0.03800
C268        C  0.45136652  0.38770409  0.87916638     0.03200
C269        C  0.38712786  0.29644430  0.84632832     0.10000
C270        C  0.35000691  0.30690348  0.90980943     0.35900
C271        C  0.98572622  0.41485144  0.86792533     0.39300
C272        C  0.39397212  0.27137009  0.85935498    -0.04200
C273        C  0.38137778  0.24055435  0.83774562     0.02900
C274        C  0.36439670  0.23578623  0.80009592    -0.03800
C275        C  0.35505224  0.26019216  0.78951145     0.00000
C276        C  0.36620293  0.29007664  0.81265857    -0.02600
C277        C  0.41457199  0.27768536  0.89515470     0.36700
C278        C  0.33427932  0.25553325  0.75468133     0.40300
C279        C  0.38574565  0.21443022  0.85627050     0.39400
C280        C  0.35628454  0.31460508  0.80184004     0.36300
C281        C  0.45638201  0.35130128  0.82862949     0.37000
C282        C  0.38018901  0.37065501  0.95156779     0.40300
N283        N  0.38869706  0.19422108  0.87374091    -0.37800
N284        N  0.43115320  0.28290490  0.92352071    -0.39400
N285        N  0.31853824  0.25398966  0.72680027    -0.37100
N286        N  0.34814310  0.33405203  0.79359572    -0.39500
N287        N  0.32276240  0.28475166  0.91848228    -0.39300
N288        N  0.36459770  0.37474335  0.97613302    -0.36900
N289        N  0.01285075  0.43642921  0.85810379    -0.38000
N290        N  0.47403726  0.34845235  0.80591522    -0.39600
C291        C  0.14946204  0.06199684  0.86506535    -0.04600
C292        C  0.17206021  0.09758195  0.87010709     0.09600
C293        C  0.16254776  0.11578880  0.89611274    -0.02000
C294        C  0.13040690  0.09864658  0.91607724    -0.00200
C295        C  0.10883158  0.06274490  0.91287598    -0.03800
C296        C  0.11868366  0.04450108  0.88750803     0.03200
C297        C  0.20609331  0.11546100  0.84847909     0.10000
C298        C  0.18616082  0.15199343  0.90302593     0.35900
C299        C  0.09834927  0.00749871  0.88625284     0.39300
C300        C  0.21166411  0.13756656  0.81632335    -0.04200
C301        C  0.24293643  0.15268265  0.79449850     0.02900
C302        C  0.26806452  0.14348842  0.80217429    -0.03800
C303        C  0.26278687  0.12246849  0.83617382     0.00000
C304        C  0.23237341  0.10924161  0.85936743    -0.02600
C305        C  0.18460958  0.14404678  0.80496725     0.36700
C306        C  0.28715061  0.11228095  0.84703489     0.40300
C307        C  0.24860437  0.17801849  0.76473678     0.39400
C308        C  0.22757557  0.08826109  0.89420730     0.36300
C309        C  0.15799559  0.04325354  0.83689945     0.37000
C310        C  0.11883753  0.11814525  0.93846054     0.40300
N311        N  0.25106537  0.19770568  0.74124454    -0.37800
N312        N  0.16299030  0.14913400  0.79595541    -0.39400
N313        N  0.30595045  0.10385178  0.85761430    -0.37100
N314        N  0.22368048  0.07148011  0.92190641    -0.39500
N315        N  0.20511190  0.18083657  0.90873206    -0.39300
N316        N  0.10928884  0.13381305  0.95550964    -0.36900
N317        N  0.08295113  0.47802475  0.88554093    -0.38000
N318        N  0.16459456  0.02815705  0.81441338    -0.39600
C319        C  0.41133194  0.13007960  0.67288767    -0.04600
C320        C  0.38902670  0.09662210  0.65854868     0.09600
C321        C  0.35317098  0.08163441  0.66338286    -0.02000
C322        C  0.33978327  0.09970261  0.68310767    -0.00200
C323        C  0.36218972  0.13151419  0.70164079    -0.03800
C324        C  0.39797075  0.14756712  0.69403775     0.03200
C325        C  0.40320219  0.07875644  0.63466277     0.10000
C326        C  0.33001610  0.04766675  0.64754237     0.35900
C327        C  0.42058707  0.18343934  0.70328369     0.39300
C328        C  0.41501432  0.05919711  0.65384826    -0.04200
C329        C  0.43153097  0.04535191  0.63149709     0.02900
C330        C  0.43501347  0.04985285  0.58964659    -0.03800
C331        C  0.42085754  0.06723807  0.57017635     0.00000
C332        C  0.40537954  0.08199561  0.59265200    -0.02600
C333        C  0.40889559  0.05227043  0.69626874     0.36700
C334        C  0.42160672  0.06932998  0.52689651     0.40300
C335        C  0.44511111  0.02664504  0.65149419     0.39400
C336        C  0.39124845  0.10021766  0.57262718     0.36300
C337        C  0.44799484  0.14692234  0.66459886     0.37000
C338        C  0.30315617  0.08648778  0.68086028     0.40300
N339        N  0.45605152  0.01177421  0.66739744    -0.37800
N340        N  0.40321245  0.04609699  0.72993389    -0.39400
N341        N  0.42184515  0.07067495  0.49234766    -0.37100
N342        N  0.37971604  0.11461224  0.55687639    -0.39500
N343        N  0.31155076  0.02050899  0.63507682    -0.39300
N344        N  0.27382602  0.07473687  0.67668071    -0.36900
N345        N  0.43908255  0.21241227  0.70861043    -0.38000
N346        N  0.47720600  0.16039223  0.65772219    -0.39600
C347        C  0.39159121  0.26517084  0.63776478    -0.04600
C348        C  0.40819160  0.29764585  0.65579690     0.09600
C349        C  0.41668525  0.30024786  0.69648878    -0.02000
C350        C  0.40583967  0.27039732  0.71949257    -0.00200
C351        C  0.38160667  0.23744403  0.70383454    -0.03800
C352        C  0.38092340  0.23555035  0.66111723     0.03200
C353        C  0.42104442  0.32937388  0.63097834     0.10000
C354        C  0.43810266  0.33394337  0.71394343     0.35900
C355        C  0.37647514  0.20577872  0.64010868     0.39300
C356        C  0.40493740  0.34875194  0.63350436    -0.04200
C357        C  0.41722213  0.37881253  0.61049952     0.02900
C358        C  0.44575028  0.38969903  0.58414874    -0.03800
C359        C  0.46123964  0.36948256  0.58114105     0.00000
C360        C  0.44975982  0.34034594  0.60550215    -0.02600
C361        C  0.37609769  0.33808175  0.66068139     0.36700
C362        C  0.48798056  0.37740821  0.55169659     0.40300
C363        C  0.40051782  0.39855147  0.61480354     0.39400
C364        C  0.46819007  0.32209387  0.60524203     0.36300
C365        C  0.38630789  0.26227135  0.59480417     0.37000
C366        C  0.42617138  0.27406193  0.75430692     0.40300
N367        N  0.38697512  0.41409363  0.61817123    -0.37800
N368        N  0.35331291  0.32972805  0.68263193    -0.39400
N369        N  0.50906687  0.38346829  0.52799673    -0.37100
N370        N  0.48302988  0.30769159  0.60533207    -0.39500
N371        N  0.45506060  0.36125256  0.72676574    -0.39300
N372        N  0.44402479  0.27893686  0.78129801    -0.36900
N373        N  0.37362860  0.18266486  0.62232562    -0.38000
N374        N  0.38227177  0.26004749  0.56054058    -0.39600
C375        C  0.16298769  0.06314649  0.60962313    -0.04600
C376        C  0.17171962  0.09112854  0.63496204     0.09600
C377        C  0.14967268  0.10430715  0.63758754    -0.02000
C378        C  0.11896207  0.08969637  0.61494319    -0.00200
C379        C  0.10955685  0.06111489  0.58956646    -0.03800
C380        C  0.13204756  0.04793146  0.58741532     0.03200
C381        C  0.20405624  0.10661444  0.65948684     0.10000
C382        C  0.15864866  0.13290556  0.66417869     0.35900
C383        C  0.12400956  0.01876976  0.56229088     0.39300
C384        C  0.23264102  0.13856152  0.64900258    -0.04200
C385        C  0.26223277  0.15432490  0.67352090     0.02900
C386        C  0.26471564  0.13728652  0.70780232    -0.03800
C387        C  0.23606756  0.10420762  0.71694762     0.00000
C388        C  0.20570608  0.08969878  0.69372314    -0.02600
C389        C  0.23139343  0.15543043  0.61281747     0.36700
C390        C  0.23759803  0.08345792  0.74857571     0.40300
C391        C  0.28871155  0.18904417  0.66386753     0.39400
C392        C  0.17588170  0.05703564  0.70499419     0.36300
C393        C  0.18615394  0.05010365  0.60625312     0.37000
C394        C  0.09691219  0.10391974  0.61903867     0.40300
N395        N  0.30833726  0.21679285  0.65423158    -0.37800
N396        N  0.23044096  0.16887630  0.58398342    -0.39400
N397        N  0.23712000  0.06567559  0.77345709    -0.37100
N398        N  0.15207659  0.03101510  0.71390510    -0.39500
N399        N  0.16618155  0.15576730  0.68539235    -0.39300
N400        N  0.07961586  0.11559030  0.62246965    -0.36900
N401        N  0.11764115  0.99523586  0.54281199    -0.38000
N402        N  0.20457089  0.03966322  0.60359414    -0.39600
C403        C  0.33357816  0.66910826  0.71300966     0.46300
H404        H  0.33030548  0.66641504  0.68055939    -0.02700
C405        C  0.33559093  0.66898172  0.78994719     0.46400
H406        H  0.33591022  0.66827287  0.82269765    -0.02700
C407        C  0.35806069  0.70601710  0.73065293    -0.16400
C408        C  0.29743252  0.65376209  0.73286010    -0.16100
C409        C  0.34842712  0.64810114  0.72875365    -0.16500
C410        C  0.35585637  0.70559840  0.77264739    -0.16500
C411        C  0.29866589  0.65434602  0.77417523    -0.16000
C412        C  0.35035474  0.64836585  0.76954961    -0.16400
C413        C  0.16250582  0.83796004  0.28755044     0.42500
H414        H  0.16375276  0.83901397  0.32055784    -0.02700
C415        C  0.15956590  0.83520110  0.21015481     0.46400
H416        H  0.15811433  0.83369053  0.17717071    -0.02700
C417        C  0.19854902  0.85492721  0.26757085    -0.16400
C418        C  0.14235413  0.80095482  0.27116769    -0.16100
C419        C  0.14463729  0.85619856  0.26964729    -0.16500
C420        C  0.19688028  0.85442908  0.22630762    -0.16500
C421        C  0.14184377  0.79956543  0.22997466    -0.16000
C422        C  0.14223398  0.85383481  0.22832090    -0.16400
O423        O  0.43079240  0.99718444  0.04962032    -0.77600
C424        C  0.03744876  0.57837677  0.06943575     0.83400
O425        O  0.47264510  0.52665433  0.91860593    -0.78700
O426        O  0.07945693  0.54581930  0.97518713    -0.80200
O427        O  0.99919413  0.94210029  0.05483180    -0.80000
O428        O  0.42800823  0.94708009  0.05442152    -0.78600
Zn429      Zn  0.47488942  0.52827909  0.01945199     1.55700
O430        O  0.05136161  0.98922292  0.05223647    -0.80000
Cd431      Cd  0.46932714  0.95472194  0.02077924     1.59700
Cd432      Cd  0.49695725  0.50238511  0.94106192     1.59600
O433        O  0.44912877  0.92051803  0.97412319    -0.80000
O434        O  0.49601844  0.50282441  0.00085635    -1.90500
Cd435      Cd  0.04405793  0.52450835  0.02162088     1.59900
O436        O  0.46939042  0.95276119  0.91942724    -0.80000
O437        O  0.05420038  0.56381058  0.06055795    -0.78600
C438        C  0.46100446  0.54382092  0.93521387     0.83900
C439        C  0.41592647  0.96627566  0.06156728     0.83600
O440        O  0.00731433  0.56759218  0.05558372    -0.77600
C441        C  0.03113801  0.95845913  0.06366705     0.84400
O442        O  0.46192692  0.54745049  0.97303897    -0.77700
C443        C  0.45158937  0.92365423  0.93627305     0.84500
C444        C  0.07679755  0.54440106  0.93718632     0.84800
O445        O  0.04764651  0.52792746  0.91957460    -0.80100
O446        O  0.06290362  0.51423785  0.55419215    -0.77600
C447        C  0.45978983  0.92222142  0.56049888     0.83400
O448        O  0.02590279  0.98255786  0.41733444    -0.78700
O449        O  0.41489626  0.95817852  0.47081365    -0.80200
O450        O  0.48457794  0.55633394  0.55651306    -0.80000
O451        O  0.06365209  0.56310764  0.55518693    -0.78600
Zn452      Zn  0.02297542  0.98170863  0.51919955     1.55700
O453        O  0.43611471  0.50498646  0.55474755    -0.80000
Cd454      Cd  0.01975303  0.55065674  0.52183039     1.59700
Cd455      Cd  0.49848421  0.50419080  0.43994348     1.59600
O456        O  0.03533322  0.58565818  0.47552143    -0.80000
O457        O  0.49775264  0.50288741  0.50003009    -1.90500
Cd458      Cd  0.44861582  0.97565399  0.51871700     1.59900
O459        O  0.02134714  0.55449076  0.41969888    -0.80000
O460        O  0.43976380  0.93270665  0.55001672    -0.78600
C461        C  0.04182434  0.96990503  0.43479640     0.83900
C462        C  0.07685460  0.54533929  0.56519628     0.83600
O463        O  0.49171300  0.93900610  0.55119959    -0.77600
C464        C  0.45301831  0.53615595  0.56601877     0.84400
O465        O  0.04286053  0.96846501  0.47280541    -0.77700
C466        C  0.03421047  0.58331626  0.43749581     0.84500
C467        C  0.41882401  0.96025796  0.43297226     0.84800
O468        O  0.44868029  0.97655715  0.41687186    -0.80100
C469        C  0.10421419  0.66580947  0.11148993    -0.04600
C470        C  0.08443691  0.67152906  0.13962475     0.09600
C471        C  0.04976898  0.64575517  0.14657808    -0.02000
C472        C  0.03451842  0.61500869  0.12438918    -0.00200
C473        C  0.05402612  0.60953180  0.09533613    -0.03800
C474        C  0.08933831  0.63479770  0.08997501     0.03200
C475        C  0.10003626  0.70482588  0.16187800     0.10000
C476        C  0.02980512  0.65101231  0.17669855     0.35900
C477        C  0.11058042  0.62944450  0.06184518     0.39300
C478        C  0.09010962  0.72866556  0.15277431    -0.04200
C479        C  0.10385939  0.75957117  0.17446542     0.02900
C480        C  0.12780875  0.76703839  0.20585320    -0.03800
C481        C  0.13893855  0.74358248  0.21335859     0.00000
C482        C  0.12478706  0.71258191  0.19186274    -0.02600
C483        C  0.06556422  0.72125576  0.12082506     0.36700
C484        C  0.16610974  0.75144508  0.24178900     0.40300
C485        C  0.09206754  0.78275992  0.16467026     0.39400
C486        C  0.13610959  0.68869074  0.20017466     0.36300
C487        C  0.13989864  0.69214342  0.10421921     0.37000
C488        C  0.99903105  0.58864094  0.13253050     0.40300
N489        N  0.08163794  0.80018819  0.15558637    -0.37800
N490        N  0.04588395  0.71520568  0.09546415    -0.39400
N491        N  0.18744908  0.75622678  0.26437433    -0.37100
N492        N  0.14540569  0.66979046  0.20629044    -0.39500
N493        N  0.01400446  0.65544838  0.20063992    -0.39300
N494        N  0.97074328  0.56764664  0.13917017    -0.36900
N495        N  0.12778489  0.62508295  0.03994057    -0.38000
N496        N  0.16841641  0.71300131  0.09855799    -0.39600
C497        C  0.32225624  0.93306483  0.08784416    -0.04600
C498        C  0.32095559  0.92218858  0.12759491     0.09600
C499        C  0.35096234  0.92628055  0.14573778    -0.02000
C500        C  0.38211984  0.94094666  0.12415924    -0.00200
C501        C  0.38347914  0.95192314  0.08446229    -0.03800
C502        C  0.35346062  0.94777413  0.06620731     0.03200
C503        C  0.28782492  0.90564997  0.15039331     0.10000
C504        C  0.34967586  0.91518819  0.18660750     0.35900
C505        C  0.35424936  0.95693793  0.02455359     0.39300
C506        C  0.26282328  0.87110583  0.14359540    -0.04200
C507        C  0.23224217  0.85495446  0.16649219     0.02900
C508        C  0.22774752  0.87248759  0.19896199    -0.03800
C509        C  0.25259244  0.90779363  0.20437057     0.00000
C510        C  0.28195373  0.92431804  0.17951384    -0.02600
C511        C  0.26896391  0.85201040  0.11327373     0.36700
C512        C  0.24781328  0.92807081  0.23413350     0.40300
C513        C  0.20614936  0.82020907  0.15611321     0.39400
C514        C  0.30598145  0.96087225  0.18314799     0.36300
C515        C  0.29137448  0.92879405  0.06922570     0.37000
C516        C  0.41285685  0.94483103  0.14281496     0.40300
N517        N  0.18615389  0.79282122  0.14558407    -0.37800
N518        N  0.27397632  0.83683800  0.08917625    -0.39400
N519        N  0.24553281  0.94534212  0.25776941    -0.37100
N520        N  0.32498100  0.99007393  0.18555829    -0.39500
N521        N  0.34874322  0.90652244  0.21928186    -0.39300
N522        N  0.43738976  0.94786064  0.15753364    -0.36900
N523        N  0.35475638  0.96387236  0.99120402    -0.38000
N524        N  0.26665985  0.92526252  0.05443773    -0.39600
C525        C  0.07423027  0.87360197  0.18978779    -0.04600
C526        C  0.09133529  0.89484134  0.15686873     0.09600
C527        C  0.12401308  0.90112849  0.14563175    -0.02000
C528        C  0.14019181  0.88706598  0.16785107    -0.00200
C529        C  0.12398312  0.86687313  0.20250088    -0.03800
C530        C  0.09003978  0.85914621  0.21204663     0.03200
C531        C  0.07488434  0.91062507  0.13363577     0.10000
C532        C  0.14120977  0.92263210  0.11112721     0.35900
C533        C  0.07008215  0.83488527  0.24322669     0.39300
C534        C  0.08335768  0.94433793  0.14215692    -0.04200
C535        C  0.06818768  0.95948154  0.12017215     0.02900
C536        C  0.04531230  0.94143089  0.08837036    -0.03800
C537        C  0.03665730  0.90742817  0.08007100     0.00000
C538        C  0.05155773  0.89220171  0.10257319    -0.02600
C539        C  0.10844620  0.96375635  0.17298051     0.36700
C540        C  0.01311410  0.88824719  0.04782021     0.40300
C541        C  0.07507108  0.99315901  0.13150879     0.39400
C542        C  0.04380611  0.85790623  0.09307801     0.36300
C543        C  0.04014232  0.86664142  0.20067935     0.37000
C544        C  0.17374635  0.89448451  0.15427658     0.40300
N545        N  0.08002682  0.51970497  0.14093190    -0.37800
N546        N  0.12883271  0.97941509  0.19716690    -0.39400
N547        N  0.99421035  0.87279020  0.02225465    -0.37100
N548        N  0.03788432  0.83063582  0.08552460    -0.39500
N549        N  0.15491890  0.93985607  0.08373154    -0.39300
N550        N  0.20001878  0.90116601  0.14067953    -0.36900
N551        N  0.05320665  0.81581461  0.26794836    -0.38000
N552        N  0.01295831  0.86113771  0.20926780    -0.39600
C553        C  0.07317899  0.71406954  0.31459682    -0.04600
C554        C  0.09162352  0.70920440  0.34497501     0.09600
C555        C  0.12550087  0.73544238  0.35376028    -0.02000
C556        C  0.14198327  0.76544564  0.33032638    -0.00200
C557        C  0.12435057  0.76987246  0.29798248    -0.03800
C558        C  0.08909298  0.74444488  0.29176632     0.03200
C559        C  0.07560737  0.67628580  0.36781356     0.10000
C560        C  0.14330744  0.73150434  0.38744903     0.35900
C561        C  0.06804175  0.74986691  0.26376258     0.39300
C562        C  0.08314461  0.65092569  0.35712982    -0.04200
C563        C  0.06982813  0.62066785  0.37988648     0.02900
C564        C  0.04830668  0.61525825  0.41330182    -0.03800
C565        C  0.04076930  0.64083766  0.42385107     0.00000
C566        C  0.05441514  0.67118624  0.40118381    -0.02600
C567        C  0.10520834  0.65637838  0.32297710     0.36700
C568        C  0.01875473  0.63601837  0.45786946     0.40300
C569        C  0.07999294  0.59609668  0.37013737     0.39400
C570        C  0.04706926  0.69751139  0.41240777     0.36300
C571        C  0.03745651  0.68791223  0.30738969     0.37000
C572        C  0.17745589  0.79075857  0.33956902     0.40300
N573        N  0.08836157  0.57667627  0.36248850    -0.37800
N574        N  0.12291332  0.66088214  0.29579347    -0.39400
N575        N  0.50137441  0.63236182  0.48519996    -0.37100
N576        N  0.04129091  0.71859077  0.42123393    -0.39500
N577        N  0.15730310  0.72839991  0.41452992    -0.39300
N578        N  0.20566956  0.80986432  0.34874686    -0.36900
N579        N  0.05004728  0.75288403  0.24188944    -0.38000
N580        N  0.00889750  0.66717101  0.30183918    -0.39600
C581        C  0.26922018  0.90569739  0.34609667    -0.04600
C582        C  0.29367332  0.89649352  0.33682188     0.09600
C583        C  0.28688070  0.87294994  0.30590087    -0.02000
C584        C  0.25619408  0.85939966  0.28331429    -0.00200
C585        C  0.23154457  0.86918631  0.29163640    -0.03800
C586        C  0.23820546  0.89189235  0.32421670     0.03200
C587        C  0.32670675  0.91184434  0.35993915     0.10000
C588        C  0.31146410  0.86225233  0.29785382     0.35900
C589        C  0.21400853  0.90219300  0.33565054     0.39300
C590        C  0.32969591  0.89429389  0.39283451    -0.04200
C591        C  0.35999769  0.90975573  0.41619123     0.02900
C592        C  0.38753049  0.94318590  0.40703644    -0.03800
C593        C  0.38458706  0.96043319  0.37352171     0.00000
C594        C  0.35438450  0.94469536  0.35000144    -0.02600
C595        C  0.30130217  0.86038603  0.40283267     0.36700
C596        C  0.41188866  0.99503964  0.36416953     0.40300
C597        C  0.36296217  0.89083088  0.44917924     0.39400
C598        C  0.35140090  0.96246793  0.31577546     0.36300
C599        C  0.27619082  0.92964070  0.37850708     0.37000
C600        C  0.25004102  0.83420306  0.25298447     0.40300
N601        N  0.36530471  0.87571613  0.47547331    -0.37800
N602        N  0.27862019  0.83332948  0.41069891    -0.39400
N603        N  0.43363383  0.02267821  0.35677207    -0.37100
N604        N  0.34882423  0.97648520  0.28844509    -0.39500
N605        N  0.33101793  0.85363671  0.29162598    -0.39300
N606        N  0.24692867  0.81457677  0.22889750    -0.36900
N607        N  0.19590153  0.91135896  0.34679492    -0.38000
N608        N  0.28189136  0.94879801  0.40427532    -0.39600
C609        C  0.10147595  0.87775109  0.35512470    -0.04600
C610        C  0.10785379  0.91014744  0.34369465     0.09600
C611        C  0.12812036  0.92604627  0.30958125    -0.02000
C612        C  0.14153571  0.90944593  0.28662060    -0.00200
C613        C  0.13259811  0.87534831  0.29574633    -0.03800
C614        C  0.11269048  0.85995741  0.33085469     0.03200
C615        C  0.09138380  0.92649814  0.36643628     0.10000
C616        C  0.13496330  0.95961909  0.29804769     0.35900
C617        C  0.10166565  0.82512067  0.34185847     0.39300
C618        C  0.11083925  0.95385176  0.39310670    -0.04200
C619        C  0.09492962  0.96891220  0.41430224     0.02900
C620        C  0.05915539  0.95580574  0.41027218    -0.03800
C621        C  0.03974361  0.92845261  0.38354253     0.00000
C622        C  0.05586138  0.91410867  0.36146895    -0.02600
C623        C  0.14708395  0.96605568  0.39925356     0.36700
C624        C  0.50293541  0.91443881  0.37939585     0.40300
C625        C  0.11568478  0.99896812  0.43874968     0.39400
C626        C  0.03583458  0.88622002  0.33382904     0.36300
C627        C  0.08298551  0.86260388  0.39210760     0.37000
C628        C  0.16559326  0.92857465  0.25480772     0.40300
N629        N  0.13235005  0.52326260  0.45766445    -0.37800
N630        N  0.17596979  0.97568363  0.40431204    -0.39400
N631        N  0.47355037  0.90315570  0.37622211    -0.37100
N632        N  0.02004242  0.86388384  0.31183425    -0.39500
N633        N  0.14029212  0.98641045  0.28914486    -0.39300
N634        N  0.18449232  0.94485134  0.22957570    -0.36900
N635        N  0.09173983  0.79747276  0.35251739    -0.38000
N636        N  0.06845311  0.85069332  0.42172288    -0.39600
C637        C  0.36687301  0.58154853  0.81717090    -0.04600
C638        C  0.39882446  0.60260859  0.83599672     0.09600
C639        C  0.41584346  0.63822127  0.83106345    -0.02000
C640        C  0.40077750  0.65279707  0.80785850    -0.00200
C641        C  0.36728633  0.63224657  0.79173913    -0.03800
C642        C  0.35103638  0.59621386  0.79531235     0.03200
C643        C  0.41468328  0.58736487  0.86124048     0.10000
C644        C  0.44908265  0.65993396  0.85000036     0.35900
C645        C  0.31805447  0.57363807  0.77684050     0.39300
C646        C  0.44157481  0.58362607  0.84592650    -0.04200
C647        C  0.45698616  0.56984443  0.87001116     0.02900
C648        C  0.44543747  0.55943731  0.90989515    -0.03800
C649        C  0.41845793  0.56362159  0.92511776     0.00000
C650        C  0.40347571  0.57776541  0.90093137    -0.02600
C651        C  0.45392332  0.59475401  0.80548152     0.36700
C652        C  0.40521156  0.55280404  0.96535034     0.40300
C653        C  0.48541574  0.56745792  0.85365118     0.39400
C654        C  0.37671617  0.58299583  0.91704138     0.36300
C655        C  0.35041825  0.54466277  0.82028922     0.37000
C656        C  0.42126289  0.68883115  0.79934114     0.40300
N657        N  0.00807673  0.56560617  0.84040712    -0.37800
N658        N  0.46407885  0.60397864  0.77340802    -0.39400
N659        N  0.39461335  0.54442218  0.99746100    -0.37100
N660        N  0.35547393  0.58731154  0.92983640    -0.39500
N661        N  0.47555214  0.67720121  0.86510685    -0.39300
N662        N  0.43962735  0.71775609  0.79414657    -0.36900
N663        N  0.29194289  0.55393660  0.76263570    -0.38000
N664        N  0.33744121  0.51525941  0.82272066    -0.39600
C665        C  0.43622826  0.85644488  0.85846928    -0.04600
C666        C  0.40260582  0.82983297  0.86815817     0.09600
C667        C  0.38435167  0.83450584  0.89931048    -0.02000
C668        C  0.39979060  0.86562873  0.92077321    -0.00200
C669        C  0.43375929  0.89220205  0.91131491    -0.03800
C670        C  0.45139797  0.88771060  0.87924235     0.03200
C671        C  0.38718435  0.79643058  0.84645351     0.10000
C672        C  0.35014109  0.80681897  0.91008725     0.35900
C673        C  0.98562147  0.91485029  0.86787597     0.39300
C674        C  0.39401944  0.77134408  0.85945235    -0.04200
C675        C  0.38140182  0.74053198  0.83782776     0.02900
C676        C  0.36442849  0.73579186  0.80017527    -0.03800
C677        C  0.35510104  0.76021599  0.78961719     0.00000
C678        C  0.36625606  0.79008581  0.81279366    -0.02600
C679        C  0.41462783  0.77763847  0.89523969     0.36700
C680        C  0.33435347  0.75559764  0.75477493     0.40300
C681        C  0.38572098  0.71437825  0.85635369     0.39400
C682        C  0.35633699  0.81462182  0.80201676     0.36300
C683        C  0.45640979  0.85131525  0.82869145     0.37000
C684        C  0.38027783  0.87060202  0.95176715     0.40300
N685        N  0.38863026  0.69414404  0.87382665    -0.37800
N686        N  0.43121589  0.78283999  0.92359562    -0.39400
N687        N  0.31864394  0.75408901  0.72687753    -0.37100
N688        N  0.34819472  0.83407492  0.79380909    -0.39500
N689        N  0.32293619  0.78463481  0.91883402    -0.39300
N690        N  0.36469752  0.87467400  0.97636185    -0.36900
N691        N  0.01274102  0.93644078  0.85805535    -0.38000
N692        N  0.47405697  0.84848037  0.80595095    -0.39600
C693        C  0.14947791  0.56210782  0.86503412    -0.04600
C694        C  0.17209194  0.59768236  0.87013197     0.09600
C695        C  0.16259341  0.61587294  0.89618257    -0.02000
C696        C  0.13045291  0.59872093  0.91614651    -0.00200
C697        C  0.10887075  0.56282257  0.91290530    -0.03800
C698        C  0.11870829  0.54459801  0.88748490     0.03200
C699        C  0.20613151  0.61555864  0.84852432     0.10000
C700        C  0.18621774  0.65206860  0.90313920     0.35900
C701        C  0.09837849  0.50759788  0.88619023     0.39300
C702        C  0.21172876  0.63769099  0.81639145    -0.04200
C703        C  0.24299341  0.65277467  0.79455649     0.02900
C704        C  0.26808772  0.64353228  0.80221043    -0.03800
C705        C  0.26278859  0.62249134  0.83619559     0.00000
C706        C  0.23237813  0.60928289  0.85938921    -0.02600
C707        C  0.18470646  0.64422559  0.80506053     0.36700
C708        C  0.28712246  0.61226006  0.84703611     0.40300
C709        C  0.24868915  0.67812378  0.76480098     0.39400
C710        C  0.22754190  0.58825117  0.89419094     0.36300
C711        C  0.15798746  0.54338787  0.83680361     0.37000
C712        C  0.11888804  0.61820729  0.93856333     0.40300
N713        N  0.25117292  0.69782389  0.74131360    -0.37800
N714        N  0.16311304  0.64935633  0.79606703    -0.39400
N715        N  0.30589361  0.60379177  0.85760581    -0.37100
N716        N  0.22361363  0.57142497  0.92185559    -0.39500
N717        N  0.20517655  0.68090455  0.90888054    -0.39300
N718        N  0.10934082  0.63386572  0.95563623    -0.36900
N719        N  0.08290486  0.97792452  0.88563932    -0.38000
N720        N  0.16456243  0.52830672  0.81426618    -0.39600
C721        C  0.41133492  0.63006553  0.67296181    -0.04600
C722        C  0.38903017  0.59657900  0.65870499     0.09600
C723        C  0.35317754  0.58157623  0.66359105    -0.02000
C724        C  0.33979144  0.59967864  0.68323713    -0.00200
C725        C  0.36219840  0.63152628  0.70169438    -0.03800
C726        C  0.39797915  0.64757127  0.69408569     0.03200
C727        C  0.40319535  0.57870327  0.63481769     0.10000
C728        C  0.33002296  0.54755027  0.64790616     0.35900
C729        C  0.42060323  0.68344326  0.70332912     0.39300
C730        C  0.41501078  0.55914305  0.65399533    -0.04200
C731        C  0.43152848  0.54530201  0.63163548     0.02900
C732        C  0.43500287  0.54980365  0.58978369    -0.03800
C733        C  0.42084535  0.56719131  0.57032407     0.00000
C734        C  0.40537137  0.58194770  0.59280765    -0.02600
C735        C  0.40890058  0.55221702  0.69641674     0.36700
C736        C  0.42159596  0.56929293  0.52704479     0.40300
C737        C  0.44512732  0.52660946  0.65162663     0.39400
C738        C  0.39125142  0.60018344  0.57279143     0.36300
C739        C  0.44799010  0.64691242  0.66462419     0.37000
C740        C  0.30316372  0.58646070  0.68098726     0.40300
N741        N  0.45608488  0.51175356  0.66752897    -0.37800
N742        N  0.40322453  0.54604317  0.73008280    -0.39400
N743        N  0.42183848  0.57064493  0.49249637    -0.37100
N744        N  0.37973244  0.61459289  0.55704675    -0.39500
N745        N  0.31155707  0.52034024  0.63558046    -0.39300
N746        N  0.27383296  0.57471278  0.67681732    -0.36900
N747        N  0.43910628  0.71241346  0.70866737    -0.38000
N748        N  0.47719376  0.66038168  0.65770360    -0.39600
C749        C  0.39163256  0.76522515  0.63783274    -0.04600
C750        C  0.40820573  0.79769665  0.65587664     0.09600
C751        C  0.41666869  0.80029034  0.69657779    -0.02000
C752        C  0.40584348  0.77043516  0.71956644    -0.00200
C753        C  0.38162704  0.73748042  0.70389707    -0.03800
C754        C  0.38095818  0.73559794  0.66117968     0.03200
C755        C  0.42106640  0.82942905  0.63105726     0.10000
C756        C  0.43802472  0.83398244  0.71406369     0.35900
C757        C  0.37651168  0.70583061  0.64016748     0.39300
C758        C  0.40494146  0.84879285  0.63354235    -0.04200
C759        C  0.41720172  0.87882691  0.61049062     0.02900
C760        C  0.44574608  0.88972067  0.58416201    -0.03800
C761        C  0.46125303  0.86951767  0.58119610     0.00000
C762        C  0.44978580  0.84039958  0.60558719    -0.02600
C763        C  0.37610914  0.83813796  0.66072632     0.36700
C764        C  0.48798980  0.87742790  0.55175094     0.40300
C765        C  0.40043641  0.89851588  0.61470120     0.39400
C766        C  0.46823044  0.82216175  0.60535788     0.36300
C767        C  0.38638052  0.76233605  0.59486751     0.37000
C768        C  0.42619029  0.77409782  0.75436596     0.40300
N769        N  0.38683867  0.91401229  0.61798601    -0.37800
N770        N  0.35333426  0.82980255  0.68268699    -0.39400
N771        N  0.50907028  0.88347439  0.52804797    -0.37100
N772        N  0.48308193  0.80777125  0.60546896    -0.39500
N773        N  0.45492578  0.86129061  0.72691083    -0.39300
N774        N  0.44405344  0.77896268  0.78134457    -0.36900
N775        N  0.37366503  0.68271673  0.62238032    -0.38000
N776        N  0.38237269  0.76012349  0.56059937    -0.39600
C777        C  0.16298300  0.56321151  0.60967329    -0.04600
C778        C  0.17170087  0.59118813  0.63501707     0.09600
C779        C  0.14964784  0.60436115  0.63762062    -0.02000
C780        C  0.11895797  0.58976427  0.61493395    -0.00200
C781        C  0.10956202  0.56118149  0.58955962    -0.03800
C782        C  0.13205536  0.54799928  0.58743911     0.03200
C783        C  0.20403564  0.60667910  0.65955624     0.10000
C784        C  0.15859411  0.63293658  0.66423813     0.35900
C785        C  0.12403541  0.51884276  0.56231526     0.39300
C786        C  0.23262303  0.63862876  0.64907972    -0.04200
C787        C  0.26223031  0.65437285  0.67357884     0.02900
C788        C  0.26472060  0.63732320  0.70784467    -0.03800
C789        C  0.23605788  0.60425043  0.71699471     0.00000
C790        C  0.20568780  0.58975610  0.69378345    -0.02600
C791        C  0.23136161  0.65552454  0.61292745     0.36700
C792        C  0.23757767  0.58349359  0.74862081     0.40300
C793        C  0.28872346  0.68908668  0.66392714     0.39400
C794        C  0.17585333  0.55710427  0.70506556     0.36300
C795        C  0.18615078  0.55016894  0.60632664     0.37000
C796        C  0.09692827  0.60401522  0.61897024     0.40300
N797        N  0.30836402  0.71683359  0.65430083    -0.37800
N798        N  0.23039425  0.66899374  0.58412224    -0.39400
N799        N  0.23708477  0.56570185  0.77349981    -0.37100
N800        N  0.15203780  0.53109451  0.71398511    -0.39500
N801        N  0.16610184  0.65577696  0.68547809    -0.39300
N802        N  0.07965284  0.61571361  0.62235056    -0.36900
N803        N  0.11768174  0.49531250  0.54283764    -0.38000
N804        N  0.20456785  0.53972745  0.60368549    -0.39600
C805        C  0.83358716  0.16910218  0.71299714     0.46300
H806        H  0.83031781  0.16640622  0.68057514    -0.02700
C807        C  0.83559994  0.16898497  0.78994548     0.46400
H808        H  0.83592179  0.16828388  0.82268404    -0.02700
C809        C  0.85806491  0.20601431  0.73064326    -0.16400
C810        C  0.79744079  0.15375162  0.73285474    -0.16100
C811        C  0.84844212  0.14810211  0.72875449    -0.16500
C812        C  0.85586122  0.20559930  0.77263479    -0.16500
C813        C  0.79867258  0.15434287  0.77416835    -0.16000
C814        C  0.85037089  0.14837178  0.76954968    -0.16400
C815        C  0.66247582  0.33794516  0.28754970     0.42500
H816        H  0.66371273  0.33899838  0.32055746    -0.02700
C817        C  0.65955189  0.33518349  0.21015383     0.46400
H818        H  0.65810569  0.33367153  0.17716958    -0.02700
C819        C  0.69852441  0.35490832  0.26757914    -0.16400
C820        C  0.64232501  0.30093895  0.27117084    -0.16100
C821        C  0.64461299  0.35618555  0.26963340    -0.16500
C822        C  0.69686382  0.35441043  0.22631454    -0.16500
C823        C  0.64182405  0.29954846  0.22997782    -0.16000
C824        C  0.64221907  0.35382089  0.22830644    -0.16400
O825        O  0.93076537  0.49718149  0.04957936    -0.77600
C826        C  0.53746516  0.07836429  0.06945583     0.83400
O827        O  0.97264168  0.02665221  0.91864055    -0.78700
O828        O  0.57946107  0.04581238  0.97517333    -0.80200
O829        O  0.49917013  0.44208576  0.05480340    -0.80000
O830        O  0.92797636  0.44707379  0.05437033    -0.78600
Zn831      Zn  0.97490248  0.02827620  0.01947881     1.55700
O832        O  0.55133557  0.48921499  0.05224490    -0.80000
Cd833      Cd  0.96930930  0.45471985  0.02074717     1.59700
Cd834      Cd  0.99695090  0.00237488  0.94108153     1.59600
O835        O  0.94912273  0.42052698  0.97407797    -0.80000
O836        O  0.99602851  0.00282213  0.00087407    -1.90500
Cd837      Cd  0.54407359  0.02450704  0.02161803     1.59900
O838        O  0.96941701  0.45277664  0.91939014    -0.80000
O839        O  0.55421903  0.06380358  0.06056335    -0.78600
C840        C  0.96100726  0.04382361  0.93525057     0.83900
C841        C  0.91589336  0.46626889  0.06151536     0.83600
O842        O  0.50732936  0.06758093  0.05561096    -0.77600
C843        C  0.53111130  0.45844461  0.06365500     0.84400
O844        O  0.96193318  0.04745253  0.97307590    -0.77700
C845        C  0.95160323  0.42366833  0.93622891     0.84500
C846        C  0.57679285  0.04438253  0.93717336     0.84800
O847        O  0.54763682  0.02790257  0.91957225    -0.80100
O848        O  0.56289606  0.01420298  0.55421202    -0.77600
C849        C  0.95980557  0.42223263  0.56050483     0.83400
O850        O  0.52588440  0.48256934  0.41731901    -0.78700
O851        O  0.91488105  0.45817584  0.47082725    -0.80200
O852        O  0.98460147  0.05633452  0.55652177    -0.80000
O853        O  0.56366703  0.06308395  0.55519891    -0.78600
Zn854      Zn  0.52298049  0.48172599  0.51918773     1.55700
O855        O  0.93612296  0.00500042  0.55471991    -0.80000
Cd856      Cd  0.51977189  0.05064649  0.52184169     1.59700
Cd857      Cd  0.99850466  0.00418472  0.43994848     1.59600
O858        O  0.53535667  0.08564854  0.47553497    -0.80000
O859        O  0.99776179  0.00288026  0.50003453    -1.90500
Cd860      Cd  0.94860998  0.47565295  0.51872374     1.59900
O861        O  0.52137032  0.05448444  0.41970895    -0.80000
O862        O  0.93977430  0.43271028  0.55001842    -0.78600
C863        C  0.54181779  0.46992462  0.43477149     0.83900
C864        C  0.57685695  0.04530538  0.56521348     0.83600
O865        O  0.99172854  0.43902024  0.55120159    -0.77600
C866        C  0.95303466  0.03616573  0.56600555     0.84400
O867        O  0.54286527  0.46848853  0.47278071    -0.77700
C868        C  0.53423273  0.08330841  0.43750929     0.84500
C869        C  0.91880229  0.46025909  0.43298478     0.84800
O870        O  0.94865582  0.47656240  0.41687790    -0.80100
C871        C  0.60422419  0.16579002  0.11152221    -0.04600
C872        C  0.58444060  0.17150866  0.13964851     0.09600
C873        C  0.54977374  0.14573266  0.14660084    -0.02000
C874        C  0.53453039  0.11498313  0.12441966    -0.00200
C875        C  0.55404063  0.10951271  0.09536387    -0.03800
C876        C  0.58935150  0.13478117  0.09000317     0.03200
C877        C  0.60003350  0.20480593  0.16189656     0.10000
C878        C  0.52980304  0.15099190  0.17670991     0.35900
C879        C  0.61059440  0.12943452  0.06186741     0.39300
C880        C  0.59010963  0.22864485  0.15277758    -0.04200
C881        C  0.60385447  0.25955187  0.17446390     0.02900
C882        C  0.62779686  0.26702120  0.20586031    -0.03800
C883        C  0.63892449  0.24356561  0.21338062     0.00000
C884        C  0.62477508  0.21256217  0.19189217    -0.02600
C885        C  0.56557031  0.22123153  0.12081995     0.36700
C886        C  0.66609014  0.25143008  0.24181992     0.40300
C887        C  0.59206395  0.28273927  0.16465555     0.39400
C888        C  0.63608793  0.18866637  0.20022407     0.36300
C889        C  0.63991240  0.19212077  0.10426617     0.37000
C890        C  0.49904924  0.08860525  0.13257344     0.40300
N891        N  0.58163578  0.30016628  0.15556042    -0.37800
N892        N  0.54589459  0.21517866  0.09545277    -0.39400
N893        N  0.68742516  0.25621253  0.26441225    -0.37100
N894        N  0.64537397  0.16976018  0.20635458    -0.39500
N895        N  0.51399636  0.15543043  0.20064051    -0.39300
N896        N  0.47076735  0.06760237  0.13922570    -0.36900
N897        N  0.62779816  0.12507779  0.03995624    -0.38000
N898        N  0.66843387  0.21297449  0.09861774    -0.39600
C899        C  0.82221328  0.43302144  0.08780183    -0.04600
C900        C  0.82093187  0.42218992  0.12757136     0.09600
C901        C  0.85095537  0.42632649  0.14572015    -0.02000
C902        C  0.88210616  0.44098441  0.12412811    -0.00200
C903        C  0.88344601  0.45191559  0.08441365    -0.03800
C904        C  0.85341264  0.44772525  0.06615260     0.03200
C905        C  0.78780412  0.40564454  0.15038155     0.10000
C906        C  0.84969480  0.41529144  0.18661202     0.35900
C907        C  0.85418184  0.45684037  0.02448325     0.39300
C908        C  0.76280892  0.37109576  0.14359499    -0.04200
C909        C  0.73223078  0.35494012  0.16649852     0.02900
C910        C  0.72773559  0.37247055  0.19897168    -0.03800
C911        C  0.75257900  0.40777768  0.20437848     0.00000
C912        C  0.78193089  0.42430876  0.17950633    -0.02600
C913        C  0.76895223  0.35199971  0.11327678     0.36700
C914        C  0.74780823  0.42804958  0.23415684     0.40300
C915        C  0.70613944  0.32019403  0.15611959     0.39400
C916        C  0.80594406  0.46086694  0.18312590     0.36300
C917        C  0.79131808  0.42871401  0.06917886     0.37000
C918        C  0.91285655  0.44490191  0.14278514     0.40300
N919        N  0.68614364  0.29280631  0.14559025    -0.37800
N920        N  0.77396678  0.33682690  0.08918194    -0.39400
N921        N  0.74553452  0.44531528  0.25780689    -0.37100
N922        N  0.82493050  0.49007191  0.18552412    -0.39500
N923        N  0.84878405  0.40667490  0.21930507    -0.39300
N924        N  0.93740104  0.44795701  0.15750135    -0.36900
N925        N  0.85467193  0.46373498  0.99112163    -0.38000
N926        N  0.76659258  0.42515363  0.05438843    -0.39600
C927        C  0.57421011  0.37356314  0.18972144    -0.04600
C928        C  0.59132253  0.39480734  0.15680762     0.09600
C929        C  0.62400451  0.40109779  0.14558454    -0.02000
C930        C  0.64018537  0.38704636  0.16782233    -0.00200
C931        C  0.62397249  0.36685732  0.20247360    -0.03800
C932        C  0.59002268  0.35912015  0.21199981     0.03200
C933        C  0.57487735  0.41059870  0.13357428     0.10000
C934        C  0.64119887  0.42258511  0.11106843     0.35900
C935        C  0.57006060  0.33485669  0.24317577     0.39300
C936        C  0.58332777  0.44429964  0.14212915    -0.04200
C937        C  0.56814252  0.45944133  0.12016857     0.02900
C938        C  0.54528447  0.44140761  0.08834747    -0.03800
C939        C  0.53665669  0.40741880  0.08000908     0.00000
C940        C  0.55156767  0.39219117  0.10249158    -0.02600
C941        C  0.60841285  0.46371087  0.17295832     0.36700
C942        C  0.51312820  0.38825324  0.04774098     0.40300
C943        C  0.57498675  0.49309532  0.13155363     0.39400
C944        C  0.54384715  0.35791321  0.09295367     0.36300
C945        C  0.54010609  0.36657491  0.20057917     0.37000
C946        C  0.67374471  0.39446885  0.15426235     0.40300
N947        N  0.58013822  0.01978474  0.14085148    -0.37800
N948        N  0.62879932  0.47936533  0.19714640    -0.39400
N949        N  0.49423545  0.37280813  0.02216191    -0.37100
N950        N  0.53795207  0.33065765  0.08536492    -0.39500
N951        N  0.65490483  0.43979237  0.08366014    -0.39300
N952        N  0.70002137  0.40115327  0.14067578    -0.36900
N953        N  0.55318124  0.31578165  0.26789197    -0.38000
N954        N  0.51290732  0.36104559  0.20913718    -0.39600
C955        C  0.57315807  0.21404206  0.31459181    -0.04600
C956        C  0.59159740  0.20919144  0.34498920     0.09600
C957        C  0.62546685  0.23543999  0.35378607    -0.02000
C958        C  0.64194930  0.26543905  0.33034489    -0.00200
C959        C  0.62432024  0.26985720  0.29798952    -0.03800
C960        C  0.58906736  0.24441877  0.29176264     0.03200
C961        C  0.57559060  0.17627218  0.36782612     0.10000
C962        C  0.64326806  0.23151324  0.38748902     0.35900
C963        C  0.56801581  0.24982857  0.26374631     0.39300
C964        C  0.58315642  0.15092962  0.35715419    -0.04200
C965        C  0.56984970  0.12067186  0.37990862     0.02900
C966        C  0.54832056  0.11525053  0.41331903    -0.03800
C967        C  0.54076208  0.14081594  0.42386407     0.00000
C968        C  0.55438640  0.17115851  0.40118899    -0.02600
C969        C  0.60524342  0.15640291  0.32301920     0.36700
C970        C  0.51875083  0.13598913  0.45788902     0.40300
C971        C  0.58003139  0.09611298  0.37016241     0.39400
C972        C  0.54700469  0.19746205  0.41239693     0.36300
C973        C  0.53744799  0.18786422  0.30735702     0.37000
C974        C  0.67742223  0.29075133  0.33958609     0.40300
N975        N  0.58841273  0.07670215  0.36251451    -0.37800
N976        N  0.62296966  0.16092520  0.29585196    -0.39400
N977        N  0.00137709  0.13232776  0.48522666    -0.37100
N978        N  0.54119497  0.21852237  0.42121049    -0.39500
N979        N  0.65725857  0.22841637  0.41458070    -0.39300
N980        N  0.70563721  0.30985305  0.34876280    -0.36900
N981        N  0.55002115  0.25283611  0.24186342    -0.38000
N982        N  0.50889968  0.16710409  0.30178278    -0.39600
C983        C  0.76918335  0.40566623  0.34612319    -0.04600
C984        C  0.79364852  0.39648153  0.33683477     0.09600
C985        C  0.78686589  0.37294974  0.30590215    -0.02000
C986        C  0.75617341  0.35938752  0.28332388    -0.00200
C987        C  0.73151635  0.36916345  0.29165235    -0.03800
C988        C  0.73816931  0.39185939  0.32424163     0.03200
C989        C  0.82668198  0.41183814  0.35995367     0.10000
C990        C  0.81146768  0.36228014  0.29782973     0.35900
C991        C  0.71396443  0.40214775  0.33568335     0.39300
C992        C  0.82967457  0.39428888  0.39284817    -0.04200
C993        C  0.85997628  0.40975370  0.41620548     0.02900
C994        C  0.88750484  0.44318696  0.40705439    -0.03800
C995        C  0.88455290  0.46043867  0.37354979     0.00000
C996        C  0.85435042  0.44469824  0.35002899    -0.02600
C997        C  0.80127924  0.36038399  0.40285378     0.36700
C998        C  0.91184343  0.49505381  0.36421305     0.40300
C999        C  0.86294301  0.39083062  0.44919386     0.39400
C1000       C  0.85135241  0.46248231  0.31582457     0.36300
C1001       C  0.77614277  0.42959436  0.37854774     0.37000
C1002       C  0.75002068  0.33418729  0.25299861     0.40300
N1003       N  0.86528706  0.37571798  0.47548927    -0.37800
N1004       N  0.77859412  0.33333174  0.41072942    -0.39400
N1005       N  0.93357920  0.52269974  0.35682914    -0.37100
N1006       N  0.84876264  0.47651053  0.28851434    -0.39500
N1007       N  0.83103641  0.35368772  0.29157749    -0.39300
N1008       N  0.74690609  0.31455673  0.22891631    -0.36900
N1009       N  0.69584775  0.41130030  0.34683278    -0.38000
N1010       N  0.78183587  0.44873966  0.40432775    -0.39600
C1011       C  0.60143024  0.37774954  0.35507770    -0.04600
C1012       C  0.60782748  0.41015311  0.34364759     0.09600
C1013       C  0.62810873  0.42604898  0.30954254    -0.02000
C1014       C  0.64152246  0.40944083  0.28659290    -0.00200
C1015       C  0.63257029  0.37533954  0.29572043    -0.03800
C1016       C  0.61264608  0.35995002  0.33081878     0.03200
C1017       C  0.59136652  0.42651694  0.36638338     0.10000
C1018       C  0.63496822  0.45962676  0.29800620     0.35900
C1019       C  0.60160790  0.32510990  0.34182194     0.39300
C1020       C  0.61082053  0.45385021  0.39307905    -0.04200
C1021       C  0.59491711  0.46891534  0.41427904     0.02900
C1022       C  0.55914735  0.45582868  0.41023460    -0.03800
C1023       C  0.53973873  0.42850072  0.38347240     0.00000
C1024       C  0.55585306  0.41415797  0.36138855    -0.02600
C1025       C  0.64705753  0.46602938  0.39924560     0.36700
C1026       C  0.00293377  0.41450688  0.37930627     0.40300
C1027       C  0.61567677  0.49896087  0.43873979     0.39400
C1028       C  0.53583248  0.38630412  0.33370553     0.36300
C1029       C  0.58292108  0.36260263  0.39205073     0.37000
C1030       C  0.66559411  0.42856429  0.25478943     0.40300
N1031       N  0.63235421  0.02327337  0.45767171    -0.37800
N1032       N  0.67593711  0.47563752  0.40432013    -0.39400
N1033       N  0.97355293  0.40324196  0.37611605    -0.37100
N1034       N  0.52004564  0.36399790  0.31167293    -0.39500
N1035       N  0.64030903  0.48642181  0.28910069    -0.39300
N1036       N  0.68450612  0.44483505  0.22956433    -0.36900
N1037       N  0.59167064  0.29745840  0.35247568    -0.38000
N1038       N  0.56837433  0.35069374  0.42165916    -0.39600
C1039       C  0.86687734  0.08156369  0.81722365    -0.04600
C1040       C  0.89884419  0.10262534  0.83601838     0.09600
C1041       C  0.91587848  0.13823477  0.83104252    -0.02000
C1042       C  0.90080544  0.15280739  0.80784303    -0.00200
C1043       C  0.86730526  0.13225702  0.79174525    -0.03800
C1044       C  0.85104812  0.09622569  0.79534302     0.03200
C1045       C  0.91470433  0.08738598  0.86127025     0.10000
C1046       C  0.94914354  0.15994751  0.84992513     0.35900
C1047       C  0.81807506  0.07364814  0.77685380     0.39300
C1048       C  0.94158646  0.08363151  0.84595658    -0.04200
C1049       C  0.95698627  0.06983762  0.87004064     0.02900
C1050       C  0.94544799  0.05944931  0.90993201    -0.03800
C1051       C  0.91848791  0.06366277  0.92516019     0.00000
C1052       C  0.90350494  0.07780239  0.90096672    -0.02600
C1053       C  0.95394113  0.09475920  0.80551345     0.36700
C1054       C  0.90526446  0.05288429  0.96540796     0.40300
C1055       C  0.98539167  0.06741525  0.85366879     0.39400
C1056       C  0.87675082  0.08304248  0.91707389     0.36300
C1057       C  0.85039905  0.04467906  0.82039609     0.37000
C1058       C  0.92129208  0.18883854  0.79931262     0.40300
N1059       N  0.50803766  0.06553800  0.84041928    -0.37800
N1060       N  0.96410694  0.10398773  0.77344402    -0.39400
N1061       N  0.89468539  0.04453689  0.99753137    -0.37100
N1062       N  0.85551075  0.08736330  0.92986492    -0.39500
N1063       N  0.97563614  0.17721484  0.86498266    -0.39300
N1064       N  0.93966177  0.21776158  0.79411223    -0.36900
N1065       N  0.79197508  0.05394731  0.76262486    -0.38000
N1066       N  0.83740195  0.01527652  0.82287539    -0.39600
C1067       C  0.93626084  0.35644750  0.85845070    -0.04600
C1068       C  0.90262210  0.32985178  0.86810804     0.09600
C1069       C  0.88434845  0.33454520  0.89921969    -0.02000
C1070       C  0.89979029  0.36566640  0.92068579    -0.00200
C1071       C  0.93377696  0.39222011  0.91126487    -0.03800
C1072       C  0.95143152  0.38771357  0.87922288     0.03200
C1073       C  0.88720047  0.29644602  0.84641129     0.10000
C1074       C  0.85010943  0.30688397  0.90994528     0.35900
C1075       C  0.48566816  0.41483978  0.86788314     0.39300
C1076       C  0.89404317  0.27136493  0.85941302    -0.04200
C1077       C  0.88142070  0.24054726  0.83779917     0.02900
C1078       C  0.86443471  0.23579599  0.80015461    -0.03800
C1079       C  0.85510333  0.26021595  0.78959154     0.00000
C1080       C  0.86626544  0.29009294  0.81275575    -0.02600
C1081       C  0.91466957  0.27767265  0.89518722     0.36700
C1082       C  0.83434612  0.25558619  0.75475463     0.40300
C1083       C  0.88575175  0.21440043  0.85632381     0.39400
C1084       C  0.85635350  0.31463149  0.80196461     0.36300
C1085       C  0.95645135  0.35130395  0.82869835     0.37000
C1086       C  0.88026336  0.37066043  0.95164253     0.40300
N1087       N  0.88867104  0.19417172  0.87379536    -0.37800
N1088       N  0.93127446  0.28288509  0.92353040    -0.39400
N1089       N  0.81862910  0.25406721  0.72685996    -0.37100
N1090       N  0.84821869  0.33408792  0.79374461    -0.39500
N1091       N  0.82287920  0.28472202  0.91864768    -0.39300
N1092       N  0.86467261  0.37474975  0.97620760    -0.36900
N1093       N  0.51279803  0.43641863  0.85807726    -0.38000
N1094       N  0.97410341  0.34845798  0.80597599    -0.39600
C1095       C  0.64947012  0.06209163  0.86500871    -0.04600
C1096       C  0.67208029  0.09766781  0.87010084     0.09600
C1097       C  0.66258102  0.11585666  0.89615255    -0.02000
C1098       C  0.63044445  0.09870218  0.91612492    -0.00200
C1099       C  0.60886188  0.06280364  0.91288273    -0.03800
C1100       C  0.61869906  0.04458014  0.88745903     0.03200
C1101       C  0.70612192  0.11554739  0.84849561     0.10000
C1102       C  0.68620365  0.15205306  0.90310595     0.35900
C1103       C  0.59836725  0.00757970  0.88616084     0.39300
C1104       C  0.71171517  0.13766689  0.81635001    -0.04200
C1105       C  0.74298566  0.15275753  0.79452459     0.02900
C1106       C  0.76808980  0.14353087  0.80219850    -0.03800
C1107       C  0.76279329  0.12250386  0.83619704     0.00000
C1108       C  0.73237914  0.10929496  0.85938495    -0.02600
C1109       C  0.68468582  0.14418580  0.80500122     0.36700
C1110       C  0.78713386  0.11228635  0.84705665     0.40300
C1111       C  0.74867735  0.17809888  0.76475989     0.39400
C1112       C  0.72755340  0.08829359  0.89421285     0.36300
C1113       C  0.65798796  0.04337166  0.83678828     0.37000
C1114       C  0.61888638  0.11818618  0.93855889     0.40300
N1115       N  0.75115695  0.19779233  0.74126522    -0.37800
N1116       N  0.66308727  0.14930463  0.79599329    -0.39400
N1117       N  0.80591169  0.10382994  0.85763732    -0.37100
N1118       N  0.72363380  0.07149514  0.92190229    -0.39500
N1119       N  0.70516185  0.18088940  0.90884549    -0.39300
N1120       N  0.60934506  0.13384218  0.95564840    -0.36900
N1121       N  0.58291956  0.47794127  0.88566750    -0.38000
N1122       N  0.66457077  0.02829091  0.81425940    -0.39600
C1123       C  0.91134813  0.13006689  0.67295721    -0.04600
C1124       C  0.88904261  0.09658194  0.65869627     0.09600
C1125       C  0.85318988  0.08158213  0.66357705    -0.02000
C1126       C  0.83980510  0.09968383  0.68322739    -0.00200
C1127       C  0.86221271  0.13152659  0.70169480    -0.03800
C1128       C  0.89799288  0.14757217  0.69408300     0.03200
C1129       C  0.90320785  0.07870680  0.63480786     0.10000
C1130       C  0.83003346  0.04756250  0.64787644     0.35900
C1131       C  0.92061435  0.18344689  0.70331437     0.39300
C1132       C  0.91505341  0.05917329  0.65398800    -0.04200
C1133       C  0.93157646  0.04533927  0.63162650     0.02900
C1134       C  0.93502238  0.04981629  0.58977075    -0.03800
C1135       C  0.92083354  0.06717448  0.57030972     0.00000
C1136       C  0.90535613  0.08192690  0.59279480    -0.02600
C1137       C  0.90896157  0.05225996  0.69641321     0.36700
C1138       C  0.92155895  0.06925313  0.52702921     0.40300
C1139       C  0.94520566  0.02667436  0.65161884     0.39400
C1140       C  0.89120244  0.10013155  0.57277773     0.36300
C1141       C  0.94800270  0.14691533  0.66461532     0.37000
C1142       C  0.80318043  0.08647675  0.68095810     0.40300
N1143       N  0.95618766  0.01184018  0.66752052    -0.37800
N1144       N  0.90329762  0.04609297  0.73008202    -0.39400
N1145       N  0.92178178  0.07058831  0.49248017    -0.37100
N1146       N  0.87965499  0.11451497  0.55703353    -0.39500
N1147       N  0.81156561  0.02035846  0.63553599    -0.39300
N1148       N  0.77385346  0.07473833  0.67676439    -0.36900
N1149       N  0.93911476  0.21241929  0.70864064    -0.38000
N1150       N  0.97720578  0.16038637  0.65769061    -0.39600
C1151       C  0.89160464  0.26523304  0.63783357    -0.04600
C1152       C  0.90819230  0.29770292  0.65588287     0.09600
C1153       C  0.91667158  0.30028998  0.69657799    -0.02000
C1154       C  0.90584867  0.27043091  0.71955762    -0.00200
C1155       C  0.88162496  0.23747913  0.70388697    -0.03800
C1156       C  0.88094088  0.23560258  0.66117037     0.03200
C1157       C  0.92106315  0.32943971  0.63106922     0.10000
C1158       C  0.93804432  0.33397854  0.71406629     0.35900
C1159       C  0.87650104  0.20584247  0.64014745     0.39300
C1160       C  0.90495353  0.34881716  0.63356251    -0.04200
C1161       C  0.91722809  0.37885732  0.61051832     0.02900
C1162       C  0.94576438  0.38973764  0.58417966    -0.03800
C1163       C  0.96126134  0.36952581  0.58121378     0.00000
C1164       C  0.94978461  0.34040548  0.60560415    -0.02600
C1165       C  0.87612455  0.33817129  0.66074922     0.36700
C1166       C  0.98799930  0.37743103  0.55177277     0.40300
C1167       C  0.90049224  0.39857205  0.61475437     0.39400
C1168       C  0.96822489  0.32216335  0.60538636     0.36300
C1169       C  0.88632678  0.26234850  0.59487297     0.37000
C1170       C  0.92620161  0.27408749  0.75434874     0.40300
N1171       N  0.88692100  0.41409190  0.61806157    -0.37800
N1172       N  0.85335197  0.32984245  0.68271164    -0.39400
N1173       N  0.00908102  0.38347234  0.52807350    -0.37100
N1174       N  0.98307365  0.30777021  0.60551275    -0.39500
N1175       N  0.95496013  0.36128225  0.72691969    -0.39300
N1176       N  0.94407128  0.27895232  0.78132039    -0.36900
N1177       N  0.87366190  0.18273368  0.62235543    -0.38000
N1178       N  0.88229461  0.26013830  0.56060865    -0.39600
C1179       C  0.66297571  0.06315178  0.60968907    -0.04600
C1180       C  0.67170117  0.09113146  0.63503055     0.09600
C1181       C  0.64965300  0.10430976  0.63763944    -0.02000
C1182       C  0.61896178  0.08971739  0.61495712    -0.00200
C1183       C  0.60956146  0.06113635  0.58957908    -0.03800
C1184       C  0.63204784  0.04794602  0.58745589     0.03200
C1185       C  0.70404239  0.10662640  0.65955652     0.10000
C1186       C  0.65860737  0.13288809  0.66425548     0.35900
C1187       C  0.62402197  0.01879021  0.56232737     0.39300
C1188       C  0.73262432  0.13857561  0.64906788    -0.04200
C1189       C  0.76223170  0.15433393  0.67356525     0.02900
C1190       C  0.76472956  0.13729727  0.70783897    -0.03800
C1191       C  0.73607404  0.10422220  0.71699856     0.00000
C1192       C  0.70570234  0.08971440  0.69378958    -0.02600
C1193       C  0.73135527  0.15545770  0.61290710     0.36700
C1194       C  0.73760322  0.08347751  0.74863345     0.40300
C1195       C  0.78871277  0.18905114  0.66390863     0.39400
C1196       C  0.67587453  0.05706091  0.70508067     0.36300
C1197       C  0.68613660  0.05010106  0.60634194     0.37000
C1198       C  0.59693519  0.10397124  0.61900084     0.40300
N1199       N  0.80834119  0.21680081  0.65428009    -0.37800
N1200       N  0.73038105  0.16891522  0.58409486    -0.39400
N1201       N  0.73711629  0.06569597  0.77352203    -0.37100
N1202       N  0.65206444  0.03104959  0.71400707    -0.39500
N1203       N  0.66612213  0.15573117  0.68549354    -0.39300
N1204       N  0.57966188  0.11567147  0.62238713    -0.36900
N1205       N  0.61766410  0.99526128  0.54284477    -0.38000
N1206       N  0.70454808  0.03965295  0.60370086    -0.39600
C1207       C  0.83355689  0.66909008  0.71306009     0.46300
H1208       H  0.83026121  0.66638050  0.68024506    -0.02700
C1209       C  0.83557665  0.66896933  0.78986384     0.46400
H1210       H  0.83591124  0.66826705  0.82278907    -0.02700
C1211       C  0.85803375  0.70598916  0.73059370    -0.16400
C1212       C  0.79741695  0.65374873  0.73281631    -0.16100
C1213       C  0.84839729  0.64808126  0.72869766    -0.16500
C1214       C  0.85583297  0.70557957  0.77260928    -0.16500
C1215       C  0.79865091  0.65432867  0.77415214    -0.16000
C1216       C  0.85033858  0.64835370  0.76951570    -0.16400
C1217       C  0.66249974  0.83794025  0.28754776     0.42500
H1218       H  0.66374670  0.83899682  0.32055534    -0.02700
C1219       C  0.65954866  0.83516387  0.21015310     0.46400
H1220       H  0.65809196  0.83364621  0.17716967    -0.02700
C1221       C  0.69854234  0.85490476  0.26756369    -0.16400
C1222       C  0.64235030  0.80093154  0.27117603    -0.16100
C1223       C  0.64462520  0.85617287  0.26963710    -0.16500
C1224       C  0.69686508  0.85439848  0.22630063    -0.16500
C1225       C  0.64183238  0.79953205  0.22998354    -0.16000
C1226       C  0.64221747  0.85380080  0.22831105    -0.16400
O1227       O  0.93077367  0.99715248  0.04963890    -0.77600
C1228       C  0.53743865  0.57834712  0.06942877     0.83400
O1229       O  0.97268676  0.52669451  0.91858571    -0.78700
O1230       O  0.57942576  0.54577016  0.97517748    -0.80200
O1231       O  0.49923320  0.94213468  0.05482805    -0.80000
O1232       O  0.92796689  0.94703549  0.05440513    -0.78600
Zn1233     Zn  0.97491417  0.52831288  0.01943958     1.55700
O1234       O  0.55140257  0.98925676  0.05224805    -0.80000
Cd1235     Cd  0.96928634  0.95467680  0.02076429     1.59700
Cd1236     Cd  0.99699054  0.50241750  0.94106024     1.59600
O1237       O  0.94907700  0.92047507  0.97409633    -0.80000
O1238       O  0.99605351  0.50286386  0.00085751    -1.90500
Cd1239     Cd  0.54402564  0.52447106  0.02160776     1.59900
O1240       O  0.96934652  0.95273757  0.91941578    -0.80000
O1241       O  0.55418765  0.56378089  0.06053997    -0.78600
C1242       C  0.96105116  0.54386706  0.93519133     0.83900
C1243       C  0.91589690  0.96623849  0.06156779     0.83600
O1244       O  0.50730006  0.56756174  0.05558912    -0.77600
C1245       C  0.53117651  0.95848788  0.06366228     0.84400
O1246       O  0.96196970  0.54749331  0.97301702    -0.77700
C1247       C  0.95153696  0.92362543  0.93624643     0.84500
C1248       C  0.57676535  0.54435564  0.93717758     0.84800
O1249       O  0.54761267  0.52789333  0.91956713    -0.80100
O1250       O  0.56288016  0.51420870  0.55422404    -0.77600
C1251       C  0.95977274  0.92219446  0.56049575     0.83400
O1252       O  0.52590397  0.98256616  0.41729433    -0.78700
O1253       O  0.91488204  0.95819880  0.47084498    -0.80200
O1254       O  0.98457733  0.55636250  0.55642136    -0.80000
O1255       O  0.56364835  0.56308895  0.55519105    -0.78600
Zn1256     Zn  0.52299258  0.98172418  0.51916771     1.55700
O1257       O  0.93611513  0.50501377  0.55466084    -0.80000
Cd1258     Cd  0.51973672  0.55063886  0.52187269     1.59700
Cd1259     Cd  0.99848885  0.50419844  0.43990650     1.59600
O1260       O  0.53530260  0.58564554  0.47557038    -0.80000
O1261       O  0.99776738  0.50290134  0.49999422    -1.90500
Cd1262     Cd  0.94860088  0.97564203  0.51875314     1.59900
O1263       O  0.52134740  0.55448778  0.41974290    -0.80000
O1264       O  0.93974324  0.93267618  0.55001564    -0.78600
C1265       C  0.54182393  0.96991025  0.43475225     0.83900
C1266       C  0.57684254  0.54531521  0.56520699     0.83600
O1267       O  0.99169845  0.93898860  0.55121353    -0.77600
C1268       C  0.95301358  0.53618834  0.56591307     0.84400
O1269       O  0.54286516  0.96847208  0.47276209    -0.77700
C1270       C  0.53419582  0.58331041  0.43754402     0.84500
C1271       C  0.91881461  0.96027420  0.43300350     0.84800
O1272       O  0.94867426  0.97655820  0.41690816    -0.80100
C1273       C  0.60421222  0.66577104  0.11150205    -0.04600
C1274       C  0.58443784  0.67148333  0.13965031     0.09600
C1275       C  0.54977184  0.64570433  0.14660712    -0.02000
C1276       C  0.53452150  0.61496097  0.12441219    -0.00200
C1277       C  0.55402106  0.60949867  0.09533444    -0.03800
C1278       C  0.58932964  0.63477026  0.08996252     0.03200
C1279       C  0.60003280  0.70478172  0.16190298     0.10000
C1280       C  0.52980839  0.65095279  0.17673640     0.35900
C1281       C  0.61055797  0.62943642  0.06179004     0.39300
C1282       C  0.59008863  0.72861011  0.15280834    -0.04200
C1283       C  0.60383787  0.75951966  0.17449208     0.02900
C1284       C  0.62779741  0.76699947  0.20587115    -0.03800
C1285       C  0.63894033  0.74355329  0.21337209     0.00000
C1286       C  0.62479528  0.71255153  0.19187783    -0.02600
C1287       C  0.56552372  0.72118411  0.12087728     0.36700
C1288       C  0.66612041  0.75142840  0.24179389     0.40300
C1289       C  0.59203907  0.78270239  0.16469480     0.39400
C1290       C  0.63613672  0.68867408  0.20018227     0.36300
C1291       C  0.63990147  0.69209893  0.10424605     0.37000
C1292       C  0.49904366  0.58857895  0.13257348     0.40300
N1293       N  0.58160508  0.80012646  0.15560870    -0.37800
N1294       N  0.54582610  0.71512041  0.09553304    -0.39400
N1295       N  0.68746868  0.75621922  0.26437011    -0.37100
N1296       N  0.64544966  0.66978656  0.20629377    -0.39500
N1297       N  0.51400628  0.65538140  0.20068309    -0.39300
N1298       N  0.47076468  0.56757047  0.13922916    -0.36900
N1299       N  0.62775006  0.62509165  0.03984646    -0.38000
N1300       N  0.66842475  0.71294925  0.09860063    -0.39600
C1301       C  0.82223660  0.93307427  0.08783851    -0.04600
C1302       C  0.82092599  0.92218465  0.12758386     0.09600
C1303       C  0.85092294  0.92625458  0.14572764    -0.02000
C1304       C  0.88207900  0.94090091  0.12414991    -0.00200
C1305       C  0.88344842  0.95188959  0.08445720    -0.03800
C1306       C  0.85343999  0.94776614  0.06620297     0.03200
C1307       C  0.78779205  0.90564283  0.15037160     0.10000
C1308       C  0.84962955  0.91516690  0.18660046     0.35900
C1309       C  0.85423472  0.95693004  0.02454841     0.39300
C1310       C  0.76279777  0.87109671  0.14357178    -0.04200
C1311       C  0.73222017  0.85493657  0.16647324     0.02900
C1312       C  0.72772544  0.87246389  0.19894953    -0.03800
C1313       C  0.75256082  0.90777288  0.20435624     0.00000
C1314       C  0.78191503  0.92430615  0.17949167    -0.02600
C1315       C  0.76894250  0.85200956  0.11324276     0.36700
C1316       C  0.74778076  0.92804317  0.23412810     0.40300
C1317       C  0.70612973  0.82019084  0.15609046     0.39400
C1318       C  0.80592819  0.96086397  0.18311653     0.36300
C1319       C  0.79136717  0.92883962  0.06922703     0.37000
C1320       C  0.91280135  0.94474556  0.14279989     0.40300
N1321       N  0.68613201  0.79280409  0.14555978    -0.37800
N1322       N  0.77395942  0.83684492  0.08913906    -0.39400
N1323       N  0.74550126  0.94530875  0.25777318    -0.37100
N1324       N  0.82491380  0.99006882  0.18551885    -0.39500
N1325       N  0.84869309  0.90650907  0.21927899    -0.39300
N1326       N  0.93732042  0.94773949  0.15751494    -0.36900
N1327       N  0.85474475  0.96386070  0.99119697    -0.38000
N1328       N  0.76666288  0.92534011  0.05444658    -0.39600
C1329       C  0.57420982  0.87355676  0.18974511    -0.04600
C1330       C  0.59131606  0.89479095  0.15682283     0.09600
C1331       C  0.62398992  0.90106841  0.14558672    -0.02000
C1332       C  0.64017242  0.88701770  0.16782234    -0.00200
C1333       C  0.62396689  0.86683699  0.20248200    -0.03800
C1334       C  0.59002200  0.85911069  0.21201990     0.03200
C1335       C  0.57487813  0.91059180  0.13359473     0.10000
C1336       C  0.64117478  0.92254362  0.11105897     0.35900
C1337       C  0.57006420  0.83485720  0.24320579     0.39300
C1338       C  0.58328816  0.94427150  0.14220793    -0.04200
C1339       C  0.56814247  0.95943889  0.12022125     0.02900
C1340       C  0.54534276  0.94144154  0.08834380    -0.03800
C1341       C  0.53674784  0.90747122  0.07995226     0.00000
C1342       C  0.55163827  0.89222644  0.10243961    -0.02600
C1343       C  0.60829126  0.96363500  0.17312725     0.36700
C1344       C  0.51327492  0.88834522  0.04762499     0.40300
C1345       C  0.57497099  0.99308323  0.13162668     0.39400
C1346       C  0.54397205  0.85797809  0.09283251     0.36300
C1347       C  0.54011258  0.86658146  0.20061386     0.37000
C1348       C  0.67372831  0.89443803  0.15425254     0.40300
N1349       N  0.58016349  0.51980259  0.14076693    -0.37800
N1350       N  0.62860908  0.97925168  0.19739334    -0.39400
N1351       N  0.49442526  0.87293230  0.02199897    -0.37100
N1352       N  0.53812314  0.83074792  0.08518501    -0.39500
N1353       N  0.65487050  0.93973916  0.08363935    -0.39300
N1354       N  0.70000159  0.90112439  0.14065387    -0.36900
N1355       N  0.55318722  0.81579123  0.26793040    -0.38000
N1356       N  0.51291966  0.86106350  0.20918176    -0.39600
C1357       C  0.57317388  0.71408364  0.31468822    -0.04600
C1358       C  0.59163089  0.70922111  0.34505314     0.09600
C1359       C  0.62552403  0.73544752  0.35379507    -0.02000
C1360       C  0.64200255  0.76543771  0.33033768    -0.00200
C1361       C  0.62435608  0.76985755  0.29800396    -0.03800
C1362       C  0.58909111  0.74443827  0.29182002     0.03200
C1363       C  0.57561943  0.67630446  0.36789675     0.10000
C1364       C  0.64335390  0.73150971  0.38745882     0.35900
C1365       C  0.56803743  0.74984843  0.26380764     0.39300
C1366       C  0.58313994  0.65093673  0.35719271    -0.04200
C1367       C  0.56981284  0.62066992  0.37993463     0.02900
C1368       C  0.54829576  0.61525784  0.41335622    -0.03800
C1369       C  0.54076751  0.64084151  0.42391916     0.00000
C1370       C  0.55442723  0.67120070  0.40126858    -0.02600
C1371       C  0.60518903  0.65638675  0.32302508     0.36700
C1372       C  0.51873708  0.63600978  0.45792565     0.40300
C1373       C  0.57995383  0.59608639  0.37015371     0.39400
C1374       C  0.54708672  0.69752707  0.41250462     0.36300
C1375       C  0.53743545  0.68794474  0.30753312     0.37000
C1376       C  0.67748730  0.79074141  0.33954052     0.40300
N1377       N  0.58830189  0.57665536  0.36247494    -0.37800
N1378       N  0.62288041  0.66089063  0.29582719    -0.39400
N1379       N  0.00140860  0.63238385  0.48515601    -0.37100
N1380       N  0.54130990  0.71860561  0.42134050    -0.39500
N1381       N  0.65737189  0.72840720  0.41451749    -0.39300
N1382       N  0.70571255  0.80983710  0.34868547    -0.36900
N1383       N  0.55004055  0.75285507  0.24192767    -0.38000
N1384       N  0.50886329  0.66721957  0.30202692    -0.39600
C1385       C  0.76923721  0.90570509  0.34606283    -0.04600
C1386       C  0.79370016  0.89651691  0.33677506     0.09600
C1387       C  0.78690527  0.87297022  0.30585653    -0.02000
C1388       C  0.75620866  0.85940502  0.28328317    -0.00200
C1389       C  0.73154733  0.86917462  0.29162046    -0.03800
C1390       C  0.73820999  0.89187987  0.32420240     0.03200
C1391       C  0.82673018  0.91186393  0.35990361     0.10000
C1392       C  0.81149230  0.86227788  0.29780607     0.35900
C1393       C  0.71399751  0.90215327  0.33566308     0.39300
C1394       C  0.82969862  0.89431685  0.39281694    -0.04200
C1395       C  0.85998016  0.90978458  0.41620999     0.02900
C1396       C  0.88752463  0.94320980  0.40705823    -0.03800
C1397       C  0.88460382  0.96045348  0.37352445     0.00000
C1398       C  0.85441521  0.94471502  0.34997802    -0.02600
C1399       C  0.80130518  0.86040250  0.40279173     0.36700
C1400       C  0.91191282  0.99505933  0.36418207     0.40300
C1401       C  0.86290686  0.89087326  0.44924045     0.39400
C1402       C  0.85145503  0.96248694  0.31573644     0.36300
C1403       C  0.77620762  0.92964803  0.37847334     0.37000
C1404       C  0.75005424  0.83420456  0.25295771     0.40300
N1405       N  0.86521637  0.87577116  0.47557260    -0.37800
N1406       N  0.77862486  0.83333898  0.41063545    -0.39400
N1407       N  0.93366446  0.02269769  0.35679526    -0.37100
N1408       N  0.84890046  0.97650600  0.28839326    -0.39500
N1409       N  0.83104917  0.85366648  0.29157566    -0.39300
N1410       N  0.74693865  0.81457482  0.22887371    -0.36900
N1411       N  0.69587334  0.91129179  0.34682769    -0.38000
N1412       N  0.78190920  0.94880464  0.40424265    -0.39600
C1413       C  0.60143058  0.87772303  0.35507834    -0.04600
C1414       C  0.60783244  0.91012900  0.34365577     0.09600
C1415       C  0.62812859  0.92603677  0.30956487    -0.02000
C1416       C  0.64153437  0.90942769  0.28660329    -0.00200
C1417       C  0.63258466  0.87532605  0.29572787    -0.03800
C1418       C  0.61266095  0.85993306  0.33082566     0.03200
C1419       C  0.59136846  0.92648933  0.36638902     0.10000
C1420       C  0.63502210  0.95963459  0.29806711     0.35900
C1421       C  0.60163876  0.82509881  0.34183719     0.39300
C1422       C  0.61081660  0.95380774  0.39310351    -0.04200
C1423       C  0.59491453  0.96887703  0.41429497     0.02900
C1424       C  0.55915101  0.95580971  0.41022144    -0.03800
C1425       C  0.53974815  0.92849891  0.38343589     0.00000
C1426       C  0.55586169  0.91414889  0.36136468    -0.02600
C1427       C  0.64704700  0.96596952  0.39929455     0.36700
C1428       C  0.00291760  0.91434123  0.37956811     0.40300
C1429       C  0.61567179  0.99891123  0.43877309     0.39400
C1430       C  0.53584711  0.88630648  0.33366575     0.36300
C1431       C  0.58290549  0.86256578  0.39204016     0.37000
C1432       C  0.66558795  0.92854864  0.25478435     0.40300
N1433       N  0.63236065  0.52333107  0.45762547    -0.37800
N1434       N  0.67592139  0.97556407  0.40438716    -0.39400
N1435       N  0.97352167  0.90301597  0.37644927    -0.37100
N1436       N  0.52006377  0.86400836  0.31162218    -0.39500
N1437       N  0.64039405  0.98644897  0.28920355    -0.39300
N1438       N  0.68448048  0.94481927  0.22954445    -0.36900
N1439       N  0.59171426  0.79745361  0.35250540    -0.38000
N1440       N  0.56834576  0.85064803  0.42163939    -0.39600
C1441       C  0.86689174  0.58155449  0.81713277    -0.04600
C1442       C  0.89884109  0.60262359  0.83596179     0.09600
C1443       C  0.91584400  0.63823574  0.83103214    -0.02000
C1444       C  0.90077168  0.65280076  0.80781936    -0.00200
C1445       C  0.86728583  0.63224065  0.79169283    -0.03800
C1446       C  0.85104868  0.59620925  0.79526367     0.03200
C1447       C  0.91471177  0.58739219  0.86120877     0.10000
C1448       C  0.94906948  0.65996058  0.84999311     0.35900
C1449       C  0.81807667  0.57362598  0.77677397     0.39300
C1450       C  0.94159655  0.58364428  0.84588950    -0.04200
C1451       C  0.95702731  0.56988644  0.86998359     0.02900
C1452       C  0.94548731  0.55948842  0.90987205    -0.03800
C1453       C  0.91851217  0.56367889  0.92509731     0.00000
C1454       C  0.90352528  0.57781789  0.90090981    -0.02600
C1455       C  0.95390984  0.59472694  0.80542427     0.36700
C1456       C  0.90527106  0.55286763  0.96533276     0.40300
C1457       C  0.98546990  0.56751869  0.85363101     0.39400
C1458       C  0.87677858  0.58306426  0.91702717     0.36300
C1459       C  0.85044220  0.54467056  0.82027088     0.37000
C1460       C  0.92125142  0.68883355  0.79929468     0.40300
N1461       N  0.50800911  0.56552620  0.84041980    -0.37800
N1462       N  0.96403306  0.60390875  0.77333095    -0.39400
N1463       N  0.89467646  0.54448728  0.99744493    -0.37100
N1464       N  0.85554722  0.58739390  0.92982776    -0.39500
N1465       N  0.97552534  0.67724008  0.86512308    -0.39300
N1466       N  0.93961533  0.71775760  0.79409332    -0.36900
N1467       N  0.79197434  0.55392614  0.76254883    -0.38000
N1468       N  0.83746971  0.51526880  0.82272363    -0.39600
C1469       C  0.93615486  0.85644384  0.85839304    -0.04600
C1470       C  0.90252349  0.82983838  0.86806259     0.09600
C1471       C  0.88426469  0.83451419  0.89920715    -0.02000
C1472       C  0.89971532  0.86562540  0.92069631    -0.00200
C1473       C  0.93369635  0.89218689  0.91126510    -0.03800
C1474       C  0.95133294  0.88770155  0.87918510     0.03200
C1475       C  0.88711031  0.79642954  0.84637035     0.10000
C1476       C  0.85003730  0.80684079  0.90995047     0.35900
C1477       C  0.48567904  0.91486221  0.86791850     0.39300
C1478       C  0.89394684  0.77134987  0.85939428    -0.04200
C1479       C  0.88135826  0.74054010  0.83777369     0.02900
C1480       C  0.86438998  0.73578312  0.80011596    -0.03800
C1481       C  0.85504915  0.76019301  0.78953647     0.00000
C1482       C  0.86619258  0.79007031  0.81269583    -0.02600
C1483       C  0.91452779  0.77765151  0.89520787     0.36700
C1484       C  0.83428596  0.75554548  0.75470092     0.40300
C1485       C  0.88571541  0.71440954  0.85629923     0.39400
C1486       C  0.85626760  0.81459649  0.80189089     0.36300
C1487       C  0.95633937  0.85131227  0.82862211     0.37000
C1488       C  0.88020340  0.87059969  0.95169018     0.40300
N1489       N  0.88865769  0.69419522  0.87377056    -0.37800
N1490       N  0.93109138  0.78285982  0.92358725    -0.39400
N1491       N  0.81855246  0.75401232  0.72681704    -0.37100
N1492       N  0.84811918  0.83404036  0.79365823    -0.39500
N1493       N  0.82281778  0.78466734  0.91866793    -0.39300
N1494       N  0.86462276  0.87467178  0.97628434    -0.36900
N1495       N  0.51279278  0.93645229  0.85808187    -0.38000
N1496       N  0.97398955  0.84847404  0.80588980    -0.39600
C1497       C  0.64946991  0.56201160  0.86508956    -0.04600
C1498       C  0.67207216  0.59759485  0.87013820     0.09600
C1499       C  0.66256096  0.61580297  0.89614405    -0.02000
C1500       C  0.63041619  0.59866305  0.91610009    -0.00200
C1501       C  0.60884077  0.56276170  0.91289843    -0.03800
C1502       C  0.61869280  0.54451724  0.88753240     0.03200
C1503       C  0.70610301  0.61547098  0.84850763     0.10000
C1504       C  0.68617641  0.65200649  0.90306211     0.35900
C1505       C  0.59835992  0.50751527  0.88627890     0.39300
C1506       C  0.71167713  0.63758905  0.81636445    -0.04200
C1507       C  0.74294393  0.65269948  0.79453070     0.02900
C1508       C  0.76806280  0.64349036  0.80218661    -0.03800
C1509       C  0.76278311  0.62245667  0.83617271     0.00000
C1510       C  0.73237321  0.60922943  0.85937183    -0.02600
C1511       C  0.68462843  0.64408286  0.80502514     0.36700
C1512       C  0.78714090  0.61225639  0.84701502     0.40300
C1513       C  0.74861573  0.67804364  0.76477903     0.39400
C1514       C  0.72756532  0.58821872  0.89418559     0.36300
C1515       C  0.65799532  0.54326879  0.83691298     0.37000
C1516       C  0.61884056  0.61816388  0.93846759     0.40300
N1517       N  0.75108099  0.69773802  0.74129484    -0.37800
N1518       N  0.66301318  0.64918003  0.79602654    -0.39400
N1519       N  0.80593466  0.60381621  0.85758386    -0.37100
N1520       N  0.72366195  0.57141016  0.92185997    -0.39500
N1521       N  0.70512878  0.68084886  0.90877153    -0.39300
N1522       N  0.60928639  0.63383397  0.95550113    -0.36900
N1523       N  0.58293568  0.97800642  0.88550764    -0.38000
N1524       N  0.66458665  0.52817228  0.81441799    -0.39600
C1525       C  0.91131773  0.63007931  0.67288942    -0.04600
C1526       C  0.88901320  0.59661992  0.65855534     0.09600
C1527       C  0.85315762  0.58162927  0.66339542    -0.02000
C1528       C  0.83976882  0.59969825  0.68311629    -0.00200
C1529       C  0.86217485  0.63151475  0.70163902    -0.03800
C1530       C  0.89795628  0.64756731  0.69403803     0.03200
C1531       C  0.90318846  0.57875351  0.63467054     0.10000
C1532       C  0.83000441  0.54765529  0.64757043     0.35900
C1533       C  0.92057517  0.68343689  0.70329552     0.39300
C1534       C  0.91496958  0.55916670  0.65385336    -0.04200
C1535       C  0.93148101  0.54531460  0.63150390     0.02900
C1536       C  0.93499325  0.54984129  0.58965760    -0.03800
C1537       C  0.92086951  0.56725679  0.57018883     0.00000
C1538       C  0.90539449  0.58201787  0.59266293    -0.02600
C1539       C  0.90883157  0.55222646  0.69626978     0.36700
C1540       C  0.92164534  0.56937301  0.52691032     0.40300
C1541       C  0.94502964  0.52657900  0.65149957     0.39400
C1542       C  0.89129754  0.60027138  0.57263901     0.36300
C1543       C  0.94798102  0.64692082  0.66460323     0.37000
C1544       C  0.80313869  0.58647267  0.68088847     0.40300
N1545       N  0.95594472  0.51168555  0.66740316    -0.37800
N1546       N  0.90313567  0.54604543  0.72993196    -0.39400
N1547       N  0.92190464  0.57073594  0.49236216    -0.37100
N1548       N  0.87979385  0.61469222  0.55688777    -0.39500
N1549       N  0.81154087  0.52049162  0.63511933    -0.39300
N1550       N  0.77380478  0.57471239  0.67673265    -0.36900
N1551       N  0.93907317  0.71240767  0.70863396    -0.38000
N1552       N  0.97719253  0.66038921  0.65772919    -0.39600
C1553       C  0.89161622  0.76516488  0.63776400    -0.04600
C1554       C  0.90820238  0.79764133  0.65579118     0.09600
C1555       C  0.91668071  0.80024957  0.69648876    -0.02000
C1556       C  0.90583343  0.77040269  0.71950087    -0.00200
C1557       C  0.88160754  0.73744660  0.70384396    -0.03800
C1558       C  0.88093849  0.73554746  0.66112584     0.03200
C1559       C  0.92104534  0.82936519  0.63096731     0.10000
C1560       C  0.93808205  0.83394851  0.71394115     0.35900
C1561       C  0.87648303  0.70576875  0.64012694     0.39300
C1562       C  0.90492412  0.84873062  0.63348610    -0.04200
C1563       C  0.91719496  0.87878514  0.61047364     0.02900
C1564       C  0.94573002  0.88968361  0.58413149    -0.03800
C1565       C  0.96122803  0.86947490  0.58112270     0.00000
C1566       C  0.94975802  0.84034110  0.60548533    -0.02600
C1567       C  0.87608207  0.83805262  0.66066159     0.36700
C1568       C  0.98796573  0.87740365  0.55167193     0.40300
C1569       C  0.90046307  0.89850004  0.61475358     0.39400
C1570       C  0.96819259  0.82209327  0.60521406     0.36300
C1571       C  0.88635800  0.76226131  0.59479883     0.37000
C1572       C  0.92615938  0.77407307  0.75432310     0.40300
N1573       N  0.88689549  0.91402027  0.61810000    -0.37800
N1574       N  0.85329582  0.82969339  0.68261137    -0.39400
N1575       N  0.00904900  0.88346729  0.52796649    -0.37100
N1576       N  0.98303518  0.80769371  0.60528944    -0.39500
N1577       N  0.95502582  0.86126210  0.72675723    -0.39300
N1578       N  0.94400638  0.77894762  0.78132088    -0.36900
N1579       N  0.87362853  0.68265005  0.62234795    -0.38000
N1580       N  0.88234572  0.76003555  0.56053149    -0.39600
C1581       C  0.66299426  0.56320567  0.60960926    -0.04600
C1582       C  0.67171864  0.59118506  0.63494973     0.09600
C1583       C  0.64966689  0.60435846  0.63756936    -0.02000
C1584       C  0.61895796  0.58974330  0.61492005    -0.00200
C1585       C  0.60955710  0.56115969  0.58954769    -0.03800
C1586       C  0.63205435  0.54798382  0.58740052     0.03200
C1587       C  0.70404883  0.60666734  0.65948753     0.10000
C1588       C  0.65863427  0.63295365  0.66416232     0.35900
C1589       C  0.62402175  0.51882033  0.56228252     0.39300
C1590       C  0.73263890  0.63861480  0.64901497    -0.04200
C1591       C  0.76223057  0.65436434  0.67353492     0.02900
C1592       C  0.76470613  0.63731317  0.70780844    -0.03800
C1593       C  0.73605127  0.60423652  0.71694441     0.00000
C1594       C  0.70569126  0.58974088  0.69371797    -0.02600
C1595       C  0.73139890  0.65549671  0.61283769     0.36700
C1596       C  0.73757277  0.58347480  0.74856356     0.40300
C1597       C  0.78872098  0.68908032  0.66388616     0.39400
C1598       C  0.67586059  0.55707907  0.70497994     0.36300
C1599       C  0.68616727  0.55017074  0.60624064     0.37000
C1600       C  0.59690538  0.60396435  0.61900682     0.40300
N1601       N  0.80835821  0.71682628  0.65425195    -0.37800
N1602       N  0.73045340  0.66895364  0.58401005    -0.39400
N1603       N  0.73708911  0.56568243  0.77343531    -0.37100
N1604       N  0.65205040  0.53105976  0.71388377    -0.39500
N1605       N  0.66615961  0.65581230  0.68537835    -0.39300
N1606       N  0.57960729  0.61563356  0.62243077    -0.36900
N1607       N  0.61765707  0.49528417  0.54281016    -0.38000
N1608       N  0.70458973  0.53973679  0.60358246    -0.39600
loop_ 
_geom_bond_atom_site_label_1 
_geom_bond_atom_site_label_2 
_geom_bond_distance 
_geom_bond_site_symmetry_2 
_ccdc_geom_bond_type 
C1            H2   1.105       .  S
C1            C7   1.521       .  S
C1            C6   1.555       .  S
C1            C5   1.575       .  S
C3            H4   1.102       .  S
C3            C9   1.539       .  S
C3            C8   1.545       .  S
C3           C10   1.562       .  S
C5            C8   1.408       .  D
C5          C351   1.555       .  S
C6            C9   1.384       .  D
C6          C386   1.521       .  S
C7           C10   1.368       .  D
C7          C323   1.503       .  S
C8          C274   1.530       .  S
C9          C302   1.526       .  S
C10         C239   1.506       .  S
C11          H12   1.105       .  S
C11          C17   1.551       .  S
C11          C16   1.547       .  S
C11          C15   1.549       .  S
C13          H14   1.105       .  S
C13          C19   1.544       .  S
C13          C18   1.545       .  S
C13          C20   1.547       .  S
C15          C18   1.382       .  D
C15         C183   1.518       .  S
C16          C19   1.379       .  D
C16         C155   1.513       .  S
C17          C20   1.387       .  D
C17         C211   1.519       .  S
C18         C106   1.508       .  S
C19          C78   1.511       .  S
C20         C127   1.516       .  S
O21          C37   1.274       .  A
O21        Zn429   2.023       .  S
C22          O38   1.276       .  A
C22          O35   1.274       .  A
C22          C71   1.494       .  S
O23          C36   1.274       .  A
O23         Cd30   2.067       .  S
O24          C42   1.276       .  A
O24         Cd33   2.076   1_556  S
O25          C39   1.274   1_655  A
O25        Cd833   2.068       .  S
O26          C37   1.272       .  A
O26         Cd29   2.050       .  S
Zn27         O40   2.016   1_554  S
Zn27        O423   2.023   1_545  S
Zn27        O842   2.028       .  S
Zn27         O32   1.947       .  S
O28          C39   1.276       .  A
O28        Cd435   2.076       .  S
Cd29         O31   2.058   1_554  S
Cd29        O829   2.068       .  S
Cd29        O434   1.998       .  S
Cd30        O436   2.072   1_545  S
Cd30        O847   2.090       .  S
Cd30         O32   2.001   1_556  S
O31          C41   1.273       .  A
O32        Cd431   1.998   1_545  S
O32        Cd837   1.993       .  S
Cd33         O35   2.066       .  S
Cd33        O430   2.076   1_545  S
Cd33        O836   1.993   1_455  S
O34          C41   1.276       .  A
O34        Cd432   2.072       .  S
C36          O40   1.274       .  A
C36         C246   1.499       .  S
C37          C99   1.475       .  S
O38        Zn831   2.028   1_455  S
C39         C134   1.490       .  S
C41         C267   1.487       .  S
C42          O43   1.278       .  A
C42         C295   1.487       .  S
O43        Cd834   2.090   1_455  S
O44          C60   1.274       .  A
O44        Zn452   2.018   1_545  S
C45          O61   1.276       .  A
C45          O58   1.275       .  A
C45         C358   1.503       .  S
O46          C59   1.276       .  A
O46       Cd1259   2.083   1_455  S
O47          C65   1.275       .  A
O47         Cd56   2.071       .  S
O48          C62   1.277       .  A
O48        Cd856   2.088       .  S
O49          C60   1.277       .  A
O49         Cd52   2.088       .  S
Zn50         O63   2.033       .  S
Zn50        O446   2.019       .  S
Zn50        O865   2.026   1_455  S
Zn50       O1261   1.948   1_455  S
O51          C62   1.276       .  A
O51        Cd458   2.081   1_545  S
Cd52         O54   2.072       .  S
Cd52        O852   2.088   1_455  S
Cd52        O859   2.008   1_455  S
Cd53       O1252   2.083   1_545  S
Cd53        O861   2.085       .  S
Cd53        O468   2.084   1_545  S
Cd53         O55   2.011       .  S
O54          C64   1.275       .  A
O55       Zn1256   1.948   1_545  S
O55        Cd856   2.008       .  S
O55        Cd458   2.007   1_545  S
Cd56         O58   2.073       .  S
Cd56        O453   2.081       .  S
Cd56        O457   2.007       .  S
O57          C64   1.278       .  A
O57        Cd857   2.085   1_455  S
C59          O63   1.276       .  A
C59         C218   1.489       .  S
C60         C379   1.509       .  S
O61        Zn854   2.026       .  S
C62         C330   1.484       .  S
C64         C162   1.493       .  S
C65          O66   1.277       .  A
C65         C190   1.494       .  S
O66        Cd455   2.084       .  S
C67          C68   1.411       .  A
C67          C72   1.410       .  A
C67          C85   1.452       .  S
C68          C73   1.501       .  S
C68          C69   1.412       .  A
C69          C70   1.412       .  A
C69          C74   1.451       .  S
C70          C71   1.417       .  A
C70          C86   1.451   1_455  S
C71          C72   1.419       .  A
C72          C75   1.451       .  S
C73          C76   1.409       .  A
C73          C80   1.408       .  A
C74          N91   1.157       .  T
C75          N93   1.157       .  T
C76          C77   1.413       .  A
C76          C81   1.452       .  S
C77          C78   1.421       .  A
C77          C83   1.449       .  S
C78          C79   1.422       .  A
C79          C80   1.411       .  A
C79          C82   1.448       .  S
C80          C84   1.452       .  S
C81          N88   1.157       .  T
C82          N89   1.157       .  T
C83          N87   1.157       .  T
C84          N90   1.157       .  T
C85          N94   1.157       .  T
C86          N92   1.158       .  T
C95          C96   1.411       .  A
C95         C100   1.410       .  A
C95         C113   1.450       .  S
C96         C101   1.493       .  S
C96          C97   1.411       .  A
C97          C98   1.407       .  A
C97         C102   1.450       .  S
C98          C99   1.410       .  A
C98         C114   1.452       .  S
C99         C100   1.412       .  A
C100        C103   1.451       .  S
C101        C104   1.406       .  A
C101        C108   1.405       .  A
C102        N119   1.157       .  T
C103        N121   1.157   1_554  T
C104        C105   1.410       .  A
C104        C109   1.453       .  S
C105        C106   1.423       .  A
C105        C111   1.448       .  S
C106        C107   1.422       .  A
C107        C108   1.410       .  A
C107        C110   1.448       .  S
C108        C112   1.452       .  S
C109        N116   1.157       .  T
C110        N117   1.157       .  T
C111        N115   1.157       .  T
C112        N118   1.157       .  T
C113        N122   1.157       .  T
C114        N120   1.157       .  T
C123        C124   1.406       .  A
C123        C128   1.413       .  A
C123        C141   1.451       .  S
C124        C129   1.496       .  S
C124        C125   1.404       .  A
C125        C126   1.411       .  A
C125        C130   1.454       .  S
C126        C127   1.426       .  A
C126        C142   1.447       .  S
C127        C128   1.423       .  A
C128        C131   1.448       .  S
C129        C132   1.409       .  A
C129        C136   1.410       .  A
C130        N147   1.157       .  T
C131        N149   1.157       .  T
C132        C133   1.409       .  A
C132        C137   1.450       .  S
C133        C134   1.416       .  A
C133        C139   1.452       .  S
C134        C135   1.418       .  A
C135        C136   1.412       .  A
C135        C138   1.451       .  S
C136        C140   1.451       .  S
C137        N144   1.157       .  T
C138        N145   1.158   1_455  T
C139        N545   1.157       .  T
C140        N146   1.157       .  T
C141        N150   1.157       .  T
C142        N148   1.156       .  T
N143        C541   1.157   1_545  T
C151        C152   1.406       .  A
C151        C156   1.412       .  A
C151        C169   1.451       .  S
C152        C157   1.498       .  S
C152        C153   1.406       .  A
C153        C154   1.412       .  A
C153        C158   1.452       .  S
C154        C155   1.422       .  A
C154        C170   1.447       .  S
C155        C156   1.423       .  A
C156        C159   1.448       .  S
C157        C160   1.410       .  A
C157        C164   1.409       .  A
C158        N175   1.157       .  T
C159        N177   1.157       .  T
C160        C161   1.412       .  A
C160        C165   1.450       .  S
C161        C162   1.416       .  A
C161        C167   1.451       .  S
C162        C163   1.419       .  A
C163        C164   1.412       .  A
C163        C166   1.451       .  S
C164        C168   1.451       .  S
C165        N172   1.157       .  T
C166        N977   1.157       .  T
C167        N171   1.157       .  T
C168        N174   1.157       .  T
C169        N178   1.157       .  T
C170        N176   1.156       .  T
N173        C970   1.157       .  T
C179        C180   1.406       .  A
C179        C184   1.412       .  A
C179        C197   1.453       .  S
C180        C185   1.499       .  S
C180        C181   1.405       .  A
C181        C182   1.414       .  A
C181        C186   1.452       .  S
C182        C183   1.426       .  A
C182        C198   1.447       .  S
C183        C184   1.424       .  A
C184        C187   1.448       .  S
C185        C188   1.410       .  A
C185        C192   1.410       .  A
C186        N203   1.157       .  T
C187        N205   1.156       .  T
C188        C189   1.412       .  A
C188        C193   1.451       .  S
C189        C190   1.418       .  A
C189        C195   1.452       .  S
C190        C191   1.417       .  A
C191        C192   1.412       .  A
C191        C194   1.451       .  S
C192        C196   1.451       .  S
C193        N200   1.157       .  T
C194        N201   1.157       .  T
C195        N199   1.158       .  T
C196        N202   1.157       .  T
C197        N206   1.157       .  T
C198        N204   1.157       .  T
C207        C208   1.406       .  A
C207        C212   1.413       .  A
C207        C225   1.452       .  S
C208        C213   1.503       .  S
C208        C209   1.407       .  A
C209        C210   1.415       .  A
C209        C214   1.451       .  S
C210        C211   1.425       .  A
C210        C226   1.448       .  S
C211        C212   1.424       .  A
C212        C215   1.447       .  S
C213        C216   1.412       .  A
C213        C220   1.413       .  A
C214        N231   1.157       .  T
C215        N233   1.156       .  T
C216        C217   1.414       .  A
C216        C221   1.450       .  S
C217        C218   1.414       .  A
C217        C223   1.450       .  S
C218        C219   1.413       .  A
C219        C220   1.412       .  A
C219       C1026   1.451       .  S
C220        C224   1.451       .  S
C221        N228   1.157       .  T
C222       C1023   1.451       .  S
C222        N229   1.157       .  T
C223        N629   1.157       .  T
C224        N230   1.157       .  T
C225        N234   1.157       .  T
C226        N232   1.157       .  T
N227        C625   1.157   1_545  T
C235        C236   1.407       .  A
C235        C240   1.413       .  A
C235        C253   1.451       .  S
C236        C241   1.495       .  S
C236        C237   1.404       .  A
C237        C238   1.409       .  A
C237        C242   1.453       .  S
C238        C239   1.416       .  A
C238        C254   1.439       .  S
C239        C240   1.418       .  A
C240        C243   1.445       .  S
C241        C244   1.408       .  A
C241        C248   1.408       .  A
C242        N259   1.157       .  T
C243        N261   1.156       .  T
C244        C245   1.411       .  A
C244        C249   1.451       .  S
C245        C246   1.422       .  A
C245        C251   1.452       .  S
C246        C247   1.423       .  A
C247        C248   1.410       .  A
C247        C250   1.452       .  S
C248        C252   1.452       .  S
C249        N256   1.157       .  T
C250        N257   1.157       .  T
C251       N1059   1.158       .  T
C252        N258   1.157       .  T
C253        N262   1.157       .  T
C254        N260   1.154       .  T
N255       C1055   1.158   1_455  T
C263        C264   1.410       .  A
C263        C268   1.406       .  A
C263        C281   1.448       .  S
C264        C269   1.496       .  S
C264        C265   1.411       .  A
C265        C266   1.413       .  A
C265        C270   1.450       .  S
C266        C267   1.417       .  A
C266        C282   1.452       .  S
C267        C268   1.412       .  A
C268       C1075   1.449       .  S
C269        C272   1.402       .  A
C269        C276   1.404       .  A
C270        N287   1.157       .  T
C271       C1072   1.449       .  S
C271        N289   1.156   1_655  T
C272        C273   1.413       .  A
C272        C277   1.454       .  S
C273        C274   1.434       .  A
C273        C279   1.447       .  S
C274        C275   1.426       .  A
C275        C276   1.415       .  A
C275        C278   1.444       .  S
C276        C280   1.452       .  S
C277        N284   1.157       .  T
C278        N285   1.155       .  T
C279        N283   1.158       .  T
C280        N286   1.157       .  T
C281        N290   1.156       .  T
C282        N288   1.158       .  T
C291        C292   1.413       .  A
C291        C296   1.411       .  A
C291        C309   1.451       .  S
C292        C297   1.504       .  S
C292        C293   1.413       .  A
C293        C294   1.413       .  A
C293        C298   1.450       .  S
C294        C295   1.414       .  A
C294        C310   1.450       .  S
C295        C296   1.411       .  A
C296        C299   1.448       .  S
C297        C300   1.407       .  A
C297        C304   1.407       .  A
C298        N315   1.157       .  T
C299        N719   1.156   1_545  T
C300        C301   1.415       .  A
C300        C305   1.452       .  S
C301        C302   1.425       .  A
C301        C307   1.446       .  S
C302        C303   1.428       .  A
C303        C304   1.414       .  A
C303        C306   1.448       .  S
C304        C308   1.453       .  S
C305        N312   1.157       .  T
C306        N313   1.157       .  T
C307        N311   1.156       .  T
C308        N314   1.157       .  T
C309        N318   1.157       .  T
C310        N316   1.157       .  T
N317        C701   1.156       .  T
C319        C320   1.410       .  A
C319        C324   1.413       .  A
C319        C337   1.450       .  S
C320        C325   1.500       .  S
C320        C321   1.408       .  A
C321        C322   1.412       .  A
C321        C326   1.451       .  S
C322        C323   1.414       .  A
C322        C338   1.445       .  S
C323        C324   1.414       .  A
C324        C327   1.447       .  S
C325        C328   1.412       .  A
C325        C332   1.411       .  A
C326        N343   1.157       .  T
C327        N345   1.157       .  T
C328        C329   1.414       .  A
C328        C333   1.449       .  S
C329        C330   1.412       .  A
C329        C335   1.450       .  S
C330        C331   1.412       .  A
C331        C332   1.411       .  A
C331        C334   1.450       .  S
C332        C336   1.451       .  S
C333        N340   1.157       .  T
C334        N341   1.157       .  T
C335        N339   1.157       .  T
C336        N342   1.157       .  T
C337        N346   1.157       .  T
C338        N344   1.156       .  T
C347        C348   1.405       .  A
C347        C352   1.414       .  A
C347        C365   1.452       .  S
C348        C353   1.503       .  S
C348        C349   1.404       .  A
C349        C350   1.415       .  A
C349        C354   1.451       .  S
C350        C351   1.427       .  A
C350        C366   1.442       .  S
C351        C352   1.431       .  A
C352        C355   1.447       .  S
C353        C356   1.409       .  A
C353        C360   1.411       .  A
C354        N371   1.157       .  T
C355        N373   1.158       .  T
C356        C357   1.414       .  A
C356        C361   1.451       .  S
C357        C358   1.423       .  A
C357        C363   1.451       .  S
C358        C359   1.421       .  A
C359        C360   1.411       .  A
C359        C362   1.452       .  S
C360        C364   1.452       .  S
C361        N368   1.157       .  T
C362        N369   1.158       .  T
C363        N367   1.158       .  T
C364        N370   1.157       .  T
C365        N374   1.157       .  T
C366        N372   1.156       .  T
C375        C376   1.408       .  A
C375        C380   1.413       .  A
C375        C393   1.453       .  S
C376        C381   1.501       .  S
C376        C377   1.409       .  A
C377        C378   1.414       .  A
C377        C382   1.452       .  S
C378        C379   1.424       .  A
C378        C394   1.451       .  S
C379        C380   1.427       .  A
C380        C383   1.452       .  S
C381        C384   1.405       .  A
C381        C388   1.406       .  A
C382        N399   1.157       .  T
C383        N401   1.157   1_545  T
C384        C385   1.412       .  A
C384        C389   1.453       .  S
C385        C386   1.424       .  A
C385        C391   1.446       .  S
C386        C387   1.426       .  A
C387        C388   1.413       .  A
C387        C390   1.447       .  S
C388        C392   1.452       .  S
C389        N396   1.157       .  T
C390        N397   1.156       .  T
C391        N395   1.156       .  T
C392        N398   1.157       .  T
C393        N402   1.157       .  T
C394        N400   1.157       .  T
C403        H404   1.094       .  S
C403        C409   1.523       .  S
C403        C408   1.556       .  S
C403        C407   1.577       .  S
C405        H406   1.097       .  S
C405        C411   1.539       .  S
C405        C410   1.545       .  S
C405        C412   1.562       .  S
C407        C410   1.408       .  D
C407        C753   1.556       .  S
C408        C411   1.383       .  D
C408        C788   1.521       .  S
C409        C412   1.367       .  D
C409        C725   1.504       .  S
C410        C676   1.530       .  S
C411        C704   1.526       .  S
C412        C641   1.506       .  S
C413        H414   1.105       .  S
C413        C419   1.551       .  S
C413        C418   1.547       .  S
C413        C417   1.549       .  S
C415        H416   1.105       .  S
C415        C421   1.544       .  S
C415        C420   1.545       .  S
C415        C422   1.547       .  S
C417        C420   1.382       .  D
C417        C585   1.518       .  S
C418        C421   1.379       .  D
C418        C557   1.513       .  S
C419        C422   1.387       .  D
C419        C613   1.519       .  S
C420        C508   1.508       .  S
C421        C480   1.511       .  S
C422        C529   1.516       .  S
O423        C439   1.274       .  A
C424        O440   1.276       .  A
C424        O437   1.274       .  A
C424        C473   1.494       .  S
O425        C438   1.274       .  A
O425       Cd432   2.066       .  S
O426        C444   1.276       .  A
O426       Cd435   2.076   1_556  S
O427        C441   1.274   1_655  A
O427      Cd1235   2.068       .  S
O428        C439   1.272       .  A
O428       Cd431   2.050       .  S
Zn429      O1244   2.028       .  S
Zn429       O442   2.016   1_554  S
Zn429       O434   1.947       .  S
O430        C441   1.276       .  A
Cd431      O1231   2.068       .  S
Cd431       O433   2.057   1_554  S
Cd432      O1249   2.090       .  S
Cd432       O434   2.001   1_556  S
O433        C443   1.273       .  A
O434      Cd1239   1.993       .  S
Cd435       O437   2.066       .  S
Cd435      O1238   1.993   1_455  S
O436        C443   1.276       .  A
C438        O442   1.274       .  A
C438        C648   1.499       .  S
C439        C501   1.475       .  S
O440      Zn1233   2.028   1_455  S
C441        C536   1.490       .  S
C443        C669   1.487       .  S
C444        O445   1.278       .  A
C444        C697   1.487       .  S
O445      Cd1236   2.090   1_455  S
O446        C462   1.274       .  A
C447        O463   1.276       .  A
C447        O460   1.275       .  A
C447        C760   1.503       .  S
O448        C461   1.276       .  A
O448       Cd857   2.083   1_465  S
O449        C467   1.275       .  A
O449       Cd458   2.070       .  S
O450        C464   1.277       .  A
O450      Cd1258   2.088       .  S
O451        C462   1.277       .  A
O451       Cd454   2.089       .  S
Zn452      O1267   2.026   1_455  S
Zn452       O465   2.033       .  S
Zn452       O859   1.948   1_465  S
O453        C464   1.276       .  A
Cd454      O1254   2.088   1_455  S
Cd454       O456   2.072       .  S
Cd454      O1261   2.008   1_455  S
Cd455       O850   2.083       .  S
Cd455      O1263   2.085       .  S
Cd455       O457   2.011       .  S
O456        C466   1.275       .  A
O457       Zn854   1.948       .  S
O457      Cd1258   2.008       .  S
Cd458       O460   2.073       .  S
O459        C466   1.278       .  A
O459      Cd1259   2.085   1_455  S
C461        O465   1.276       .  A
C461        C620   1.489       .  S
C462        C781   1.510       .  S
O463      Zn1256   2.026       .  S
C464        C732   1.484       .  S
C466        C564   1.493       .  S
C467        O468   1.277       .  A
C467        C592   1.494       .  S
C469        C470   1.411       .  A
C469        C474   1.410       .  A
C469        C487   1.452       .  S
C470        C475   1.501       .  S
C470        C471   1.412       .  A
C471        C472   1.412       .  A
C471        C476   1.451       .  S
C472        C473   1.417       .  A
C472        C488   1.451   1_455  S
C473        C474   1.419       .  A
C474        C477   1.451       .  S
C475        C478   1.409       .  A
C475        C482   1.408       .  A
C476        N493   1.157       .  T
C477        N495   1.157       .  T
C478        C479   1.413       .  A
C478        C483   1.452       .  S
C479        C480   1.421       .  A
C479        C485   1.449       .  S
C480        C481   1.422       .  A
C481        C482   1.411       .  A
C481        C484   1.448       .  S
C482        C486   1.452       .  S
C483        N490   1.157       .  T
C484        N491   1.157       .  T
C485        N489   1.157       .  T
C486        N492   1.157       .  T
C487        N496   1.157       .  T
C488        N494   1.158       .  T
C497        C498   1.411       .  A
C497        C502   1.410       .  A
C497        C515   1.450       .  S
C498        C503   1.493       .  S
C498        C499   1.411       .  A
C499        C500   1.407       .  A
C499        C504   1.450       .  S
C500        C501   1.410       .  A
C500        C516   1.452       .  S
C501        C502   1.412       .  A
C502        C505   1.451       .  S
C503        C506   1.406       .  A
C503        C510   1.405       .  A
C504        N521   1.157       .  T
C505        N523   1.157   1_554  T
C506        C507   1.410       .  A
C506        C511   1.453       .  S
C507        C508   1.423       .  A
C507        C513   1.448       .  S
C508        C509   1.422       .  A
C509        C510   1.410       .  A
C509        C512   1.448       .  S
C510        C514   1.452       .  S
C511        N518   1.157       .  T
C512        N519   1.157       .  T
C513        N517   1.157       .  T
C514        N520   1.157       .  T
C515        N524   1.157       .  T
C516        N522   1.157       .  T
C525        C526   1.406       .  A
C525        C530   1.412       .  A
C525        C543   1.451       .  S
C526        C531   1.496       .  S
C526        C527   1.404       .  A
C527        C528   1.411       .  A
C527        C532   1.454       .  S
C528        C529   1.426       .  A
C528        C544   1.447       .  S
C529        C530   1.423       .  A
C530        C533   1.448       .  S
C531        C534   1.409       .  A
C531        C538   1.410       .  A
C532        N549   1.157       .  T
C533        N551   1.157       .  T
C534        C535   1.409       .  A
C534        C539   1.450       .  S
C535        C536   1.416       .  A
C535        C541   1.452       .  S
C536        C537   1.418       .  A
C537        C538   1.412       .  A
C537        C540   1.451       .  S
C538        C542   1.451       .  S
C539        N546   1.157       .  T
C540        N547   1.158   1_455  T
C542        N548   1.157       .  T
C543        N552   1.157       .  T
C544        N550   1.156       .  T
C553        C554   1.406       .  A
C553        C558   1.412       .  A
C553        C571   1.451       .  S
C554        C559   1.498       .  S
C554        C555   1.406       .  A
C555        C556   1.412       .  A
C555        C560   1.452       .  S
C556        C557   1.422       .  A
C556        C572   1.447       .  S
C557        C558   1.423       .  A
C558        C561   1.448       .  S
C559        C562   1.410       .  A
C559        C566   1.409       .  A
C560        N577   1.157       .  T
C561        N579   1.157       .  T
C562        C563   1.412       .  A
C562        C567   1.450       .  S
C563        C564   1.416       .  A
C563        C569   1.451       .  S
C564        C565   1.419       .  A
C565        C566   1.412       .  A
C565        C568   1.451       .  S
C566        C570   1.451       .  S
C567        N574   1.157       .  T
C568       N1379   1.157       .  T
C569        N573   1.157       .  T
C570        N576   1.157       .  T
C571        N580   1.157       .  T
C572        N578   1.156       .  T
N575       C1372   1.157       .  T
C581        C582   1.406       .  A
C581        C586   1.412       .  A
C581        C599   1.453       .  S
C582        C587   1.499       .  S
C582        C583   1.405       .  A
C583        C584   1.414       .  A
C583        C588   1.452       .  S
C584        C585   1.426       .  A
C584        C600   1.447       .  S
C585        C586   1.424       .  A
C586        C589   1.448       .  S
C587        C590   1.410       .  A
C587        C594   1.410       .  A
C588        N605   1.157       .  T
C589        N607   1.156       .  T
C590        C591   1.412       .  A
C590        C595   1.451       .  S
C591        C592   1.418       .  A
C591        C597   1.452       .  S
C592        C593   1.417       .  A
C593        C594   1.412       .  A
C593        C596   1.451       .  S
C594        C598   1.451       .  S
C595        N602   1.157       .  T
C596        N603   1.157   1_565  T
C597        N601   1.158       .  T
C598        N604   1.157       .  T
C599        N608   1.157       .  T
C600        N606   1.157       .  T
C609        C610   1.406       .  A
C609        C614   1.413       .  A
C609        C627   1.452       .  S
C610        C615   1.503       .  S
C610        C611   1.407       .  A
C611        C612   1.415       .  A
C611        C616   1.451       .  S
C612        C613   1.425       .  A
C612        C628   1.448       .  S
C613        C614   1.424       .  A
C614        C617   1.447       .  S
C615        C618   1.412       .  A
C615        C622   1.413       .  A
C616        N633   1.157       .  T
C617        N635   1.156       .  T
C618        C619   1.414       .  A
C618        C623   1.450       .  S
C619        C620   1.414       .  A
C619        C625   1.450       .  S
C620        C621   1.413       .  A
C621        C622   1.412       .  A
C621       C1428   1.451       .  S
C622        C626   1.451       .  S
C623        N630   1.157       .  T
C624       C1425   1.451       .  S
C624        N631   1.157       .  T
C626        N632   1.157       .  T
C627        N636   1.157       .  T
C628        N634   1.157       .  T
C637        C638   1.407       .  A
C637        C642   1.413       .  A
C637        C655   1.451       .  S
C638        C643   1.495       .  S
C638        C639   1.404       .  A
C639        C640   1.409       .  A
C639        C644   1.453       .  S
C640        C641   1.416       .  A
C640        C656   1.440       .  S
C641        C642   1.418       .  A
C642        C645   1.445       .  S
C643        C646   1.408       .  A
C643        C650   1.408       .  A
C644        N661   1.157       .  T
C645        N663   1.156       .  T
C646        C647   1.411       .  A
C646        C651   1.451       .  S
C647        C648   1.422       .  A
C647        C653   1.452       .  S
C648        C649   1.423       .  A
C649        C650   1.410       .  A
C649        C652   1.452       .  S
C650        C654   1.452       .  S
C651        N658   1.157       .  T
C652        N659   1.157       .  T
C653       N1461   1.158       .  T
C654        N660   1.157       .  T
C655        N664   1.157       .  T
C656        N662   1.154       .  T
N657       C1457   1.158   1_455  T
C665        C666   1.410       .  A
C665        C670   1.406       .  A
C665        C683   1.448       .  S
C666        C671   1.496       .  S
C666        C667   1.411       .  A
C667        C668   1.413       .  A
C667        C672   1.450       .  S
C668        C669   1.417       .  A
C668        C684   1.452       .  S
C669        C670   1.412       .  A
C670       C1477   1.449       .  S
C671        C674   1.402       .  A
C671        C678   1.404       .  A
C672        N689   1.157       .  T
C673       C1474   1.449       .  S
C673        N691   1.156   1_655  T
C674        C675   1.413       .  A
C674        C679   1.454       .  S
C675        C676   1.434       .  A
C675        C681   1.447       .  S
C676        C677   1.426       .  A
C677        C678   1.415       .  A
C677        C680   1.444       .  S
C678        C682   1.452       .  S
C679        N686   1.157       .  T
C680        N687   1.155       .  T
C681        N685   1.158       .  T
C682        N688   1.157       .  T
C683        N692   1.156       .  T
C684        N690   1.158       .  T
C693        C694   1.413       .  A
C693        C698   1.411       .  A
C693        C711   1.451       .  S
C694        C699   1.504       .  S
C694        C695   1.413       .  A
C695        C696   1.413       .  A
C695        C700   1.450       .  S
C696        C697   1.414       .  A
C696        C712   1.450       .  S
C697        C698   1.411       .  A
C698        C701   1.448       .  S
C699        C702   1.407       .  A
C699        C706   1.407       .  A
C700        N717   1.157       .  T
C702        C703   1.414       .  A
C702        C707   1.452       .  S
C703        C704   1.425       .  A
C703        C709   1.446       .  S
C704        C705   1.428       .  A
C705        C706   1.414       .  A
C705        C708   1.448       .  S
C706        C710   1.453       .  S
C707        N714   1.157       .  T
C708        N715   1.157       .  T
C709        N713   1.156       .  T
C710        N716   1.157       .  T
C711        N720   1.157       .  T
C712        N718   1.157       .  T
C721        C722   1.410       .  A
C721        C726   1.413       .  A
C721        C739   1.450       .  S
C722        C727   1.500       .  S
C722        C723   1.408       .  A
C723        C724   1.412       .  A
C723        C728   1.451       .  S
C724        C725   1.414       .  A
C724        C740   1.445       .  S
C725        C726   1.414       .  A
C726        C729   1.447       .  S
C727        C730   1.412       .  A
C727        C734   1.411       .  A
C728        N745   1.157       .  T
C729        N747   1.157       .  T
C730        C731   1.414       .  A
C730        C735   1.449       .  S
C731        C732   1.412       .  A
C731        C737   1.450       .  S
C732        C733   1.412       .  A
C733        C734   1.411       .  A
C733        C736   1.450       .  S
C734        C738   1.451       .  S
C735        N742   1.157       .  T
C736        N743   1.157       .  T
C737        N741   1.157       .  T
C738        N744   1.157       .  T
C739        N748   1.157       .  T
C740        N746   1.156       .  T
C749        C750   1.405       .  A
C749        C754   1.414       .  A
C749        C767   1.452       .  S
C750        C755   1.503       .  S
C750        C751   1.404       .  A
C751        C752   1.415       .  A
C751        C756   1.451       .  S
C752        C753   1.427       .  A
C752        C768   1.442       .  S
C753        C754   1.431       .  A
C754        C757   1.447       .  S
C755        C758   1.409       .  A
C755        C762   1.411       .  A
C756        N773   1.157       .  T
C757        N775   1.158       .  T
C758        C759   1.414       .  A
C758        C763   1.451       .  S
C759        C760   1.423       .  A
C759        C765   1.451       .  S
C760        C761   1.421       .  A
C761        C762   1.411       .  A
C761        C764   1.452       .  S
C762        C766   1.452       .  S
C763        N770   1.157       .  T
C764        N771   1.158       .  T
C765        N769   1.158       .  T
C766        N772   1.157       .  T
C767        N776   1.157       .  T
C768        N774   1.156       .  T
C777        C778   1.408       .  A
C777        C782   1.413       .  A
C777        C795   1.453       .  S
C778        C783   1.501       .  S
C778        C779   1.409       .  A
C779        C780   1.414       .  A
C779        C784   1.452       .  S
C780        C781   1.424       .  A
C780        C796   1.451       .  S
C781        C782   1.427       .  A
C782        C785   1.452       .  S
C783        C786   1.406       .  A
C783        C790   1.406       .  A
C784        N801   1.157       .  T
C785        N803   1.157       .  T
C786        C787   1.412       .  A
C786        C791   1.453       .  S
C787        C788   1.424       .  A
C787        C793   1.446       .  S
C788        C789   1.426       .  A
C789        C790   1.413       .  A
C789        C792   1.447       .  S
C790        C794   1.452       .  S
C791        N798   1.157       .  T
C792        N799   1.156       .  T
C793        N797   1.156       .  T
C794        N800   1.157       .  T
C795        N804   1.157       .  T
C796        N802   1.157       .  T
C805        H806   1.093       .  S
C805        C811   1.523       .  S
C805        C810   1.556       .  S
C805        C809   1.577       .  S
C807        H808   1.096       .  S
C807        C813   1.540       .  S
C807        C812   1.545       .  S
C807        C814   1.563       .  S
C809        C812   1.407       .  D
C809       C1155   1.556       .  S
C810        C813   1.383       .  D
C810       C1190   1.521       .  S
C811        C814   1.367       .  D
C811       C1127   1.504       .  S
C812       C1078   1.530       .  S
C813       C1106   1.526       .  S
C814       C1043   1.506       .  S
C815        H816   1.105       .  S
C815        C821   1.551       .  S
C815        C820   1.547       .  S
C815        C819   1.549       .  S
C817        H818   1.105       .  S
C817        C823   1.544       .  S
C817        C822   1.545       .  S
C817        C824   1.547       .  S
C819        C822   1.382       .  D
C819        C987   1.518       .  S
C820        C823   1.379       .  D
C820        C959   1.513       .  S
C821        C824   1.387       .  D
C821       C1015   1.519       .  S
C822        C910   1.509       .  S
C823        C882   1.511       .  S
C824        C931   1.516       .  S
O825        C841   1.274       .  A
O825      Zn1233   2.023       .  S
C826        O842   1.276       .  A
C826        O839   1.274       .  A
C826        C875   1.494       .  S
O827        C840   1.274       .  A
O827       Cd834   2.066       .  S
O828        C846   1.276       .  A
O828       Cd837   2.076   1_556  S
O829        C843   1.274       .  A
O830        C841   1.272       .  A
O830       Cd833   2.050       .  S
Zn831      O1227   2.023   1_545  S
Zn831       O844   2.016   1_554  S
Zn831       O836   1.947       .  S
O832        C843   1.276       .  A
O832      Cd1239   2.076       .  S
Cd833       O835   2.057   1_554  S
Cd833      O1238   1.998       .  S
Cd834      O1240   2.072   1_545  S
Cd834       O836   2.001   1_556  S
O835        C845   1.273       .  A
O836      Cd1235   1.998   1_545  S
Cd837      O1234   2.076   1_545  S
Cd837       O839   2.066       .  S
O838        C845   1.276       .  A
O838      Cd1236   2.073       .  S
C840        O844   1.274       .  A
C840       C1050   1.499       .  S
C841        C903   1.475       .  S
C843        C938   1.490       .  S
C845       C1071   1.487       .  S
C846        O847   1.278       .  A
C846       C1099   1.487       .  S
O848        C864   1.274       .  A
O848      Zn1256   2.019   1_545  S
C849        O865   1.276       .  A
C849        O862   1.275       .  A
C849       C1162   1.503       .  S
O850        C863   1.276       .  A
O851        C869   1.275       .  A
O851       Cd860   2.070       .  S
O852        C866   1.277       .  A
O853        C864   1.277       .  A
O853       Cd856   2.089       .  S
Zn854      O1250   2.019       .  S
Zn854       O867   2.033       .  S
O855        C866   1.276       .  A
O855      Cd1262   2.081   1_545  S
Cd856       O858   2.072       .  S
Cd857      O1272   2.084   1_545  S
Cd857       O859   2.011       .  S
O858        C868   1.275       .  A
O859      Cd1262   2.007   1_545  S
Cd860      O1257   2.081       .  S
Cd860       O862   2.073       .  S
Cd860      O1261   2.007       .  S
O861        C868   1.278       .  A
C863        O867   1.276       .  A
C863       C1022   1.489       .  S
C864       C1183   1.510       .  S
C866       C1134   1.484       .  S
C868        C966   1.493       .  S
C869        O870   1.277       .  A
C869        C994   1.494       .  S
O870      Cd1259   2.084       .  S
C871        C872   1.411       .  A
C871        C876   1.410       .  A
C871        C889   1.452       .  S
C872        C877   1.501       .  S
C872        C873   1.412       .  A
C873        C874   1.412       .  A
C873        C878   1.451       .  S
C874        C875   1.417       .  A
C874        C890   1.451       .  S
C875        C876   1.419       .  A
C876        C879   1.451       .  S
C877        C880   1.409       .  A
C877        C884   1.408       .  A
C878        N895   1.157       .  T
C879        N897   1.157       .  T
C880        C881   1.413       .  A
C880        C885   1.452       .  S
C881        C882   1.421       .  A
C881        C887   1.449       .  S
C882        C883   1.422       .  A
C883        C884   1.411       .  A
C883        C886   1.448       .  S
C884        C888   1.452       .  S
C885        N892   1.157       .  T
C886        N893   1.157       .  T
C887        N891   1.157       .  T
C888        N894   1.157       .  T
C889        N898   1.157       .  T
C890        N896   1.158       .  T
C899        C900   1.411       .  A
C899        C904   1.410       .  A
C899        C917   1.450       .  S
C900        C905   1.493       .  S
C900        C901   1.411       .  A
C901        C902   1.407       .  A
C901        C906   1.450       .  S
C902        C903   1.410       .  A
C902        C918   1.452       .  S
C903        C904   1.412       .  A
C904        C907   1.451       .  S
C905        C908   1.406       .  A
C905        C912   1.405       .  A
C906        N923   1.157       .  T
C907        N925   1.157   1_554  T
C908        C909   1.410       .  A
C908        C913   1.453       .  S
C909        C910   1.423       .  A
C909        C915   1.448       .  S
C910        C911   1.422       .  A
C911        C912   1.410       .  A
C911        C914   1.448       .  S
C912        C916   1.452       .  S
C913        N920   1.157       .  T
C914        N921   1.157       .  T
C915        N919   1.157       .  T
C916        N922   1.157       .  T
C917        N926   1.157       .  T
C918        N924   1.157       .  T
C927        C928   1.406       .  A
C927        C932   1.413       .  A
C927        C945   1.451       .  S
C928        C933   1.496       .  S
C928        C929   1.404       .  A
C929        C930   1.411       .  A
C929        C934   1.454       .  S
C930        C931   1.426       .  A
C930        C946   1.447       .  S
C931        C932   1.423       .  A
C932        C935   1.448       .  S
C933        C936   1.409       .  A
C933        C940   1.410       .  A
C934        N951   1.157       .  T
C935        N953   1.157       .  T
C936        C937   1.409       .  A
C936        C941   1.450       .  S
C937        C938   1.416       .  A
C937        C943   1.452       .  S
C938        C939   1.418       .  A
C939        C940   1.412       .  A
C939        C942   1.451       .  S
C940        C944   1.451       .  S
C941        N948   1.157       .  T
C942        N949   1.158       .  T
C943       N1349   1.157       .  T
C944        N950   1.157       .  T
C945        N954   1.157       .  T
C946        N952   1.156       .  T
N947       C1345   1.157   1_545  T
C955        C956   1.406       .  A
C955        C960   1.412       .  A
C955        C973   1.451       .  S
C956        C961   1.498       .  S
C956        C957   1.406       .  A
C957        C958   1.412       .  A
C957        C962   1.452       .  S
C958        C959   1.422       .  A
C958        C974   1.447       .  S
C959        C960   1.423       .  A
C960        C963   1.448       .  S
C961        C964   1.410       .  A
C961        C968   1.409       .  A
C962        N979   1.157       .  T
C963        N981   1.157       .  T
C964        C965   1.412       .  A
C964        C969   1.450       .  S
C965        C966   1.416       .  A
C965        C971   1.451       .  S
C966        C967   1.419       .  A
C967        C968   1.412       .  A
C967        C970   1.451       .  S
C968        C972   1.451       .  S
C969        N976   1.157       .  T
C971        N975   1.157       .  T
C972        N978   1.157       .  T
C973        N982   1.157       .  T
C974        N980   1.156       .  T
C983        C984   1.406       .  A
C983        C988   1.412       .  A
C983       C1001   1.453       .  S
C984        C989   1.499       .  S
C984        C985   1.405       .  A
C985        C986   1.414       .  A
C985        C990   1.452       .  S
C986        C987   1.426       .  A
C986       C1002   1.447       .  S
C987        C988   1.424       .  A
C988        C991   1.448       .  S
C989        C992   1.410       .  A
C989        C996   1.410       .  A
C990       N1007   1.157       .  T
C991       N1009   1.156       .  T
C992        C993   1.412       .  A
C992        C997   1.451       .  S
C993        C994   1.418       .  A
C993        C999   1.452       .  S
C994        C995   1.417       .  A
C995        C996   1.412       .  A
C995        C998   1.451       .  S
C996       C1000   1.451       .  S
C997       N1004   1.157       .  T
C998       N1005   1.157       .  T
C999       N1003   1.158       .  T
C1000      N1006   1.157       .  T
C1001      N1010   1.157       .  T
C1002      N1008   1.157       .  T
C1011      C1012   1.406       .  A
C1011      C1016   1.413       .  A
C1011      C1029   1.452       .  S
C1012      C1017   1.503       .  S
C1012      C1013   1.407       .  A
C1013      C1014   1.415       .  A
C1013      C1018   1.451       .  S
C1014      C1015   1.425       .  A
C1014      C1030   1.448       .  S
C1015      C1016   1.424       .  A
C1016      C1019   1.447       .  S
C1017      C1020   1.412       .  A
C1017      C1024   1.413       .  A
C1018      N1035   1.157       .  T
C1019      N1037   1.156       .  T
C1020      C1021   1.414       .  A
C1020      C1025   1.450       .  S
C1021      C1022   1.414       .  A
C1021      C1027   1.450       .  S
C1022      C1023   1.413       .  A
C1023      C1024   1.412       .  A
C1024      C1028   1.451       .  S
C1025      N1032   1.157       .  T
C1026      N1033   1.157   1_455  T
C1027      N1433   1.157       .  T
C1028      N1034   1.157       .  T
C1029      N1038   1.157       .  T
C1030      N1036   1.157       .  T
N1031      C1429   1.157   1_545  T
C1039      C1040   1.407       .  A
C1039      C1044   1.413       .  A
C1039      C1057   1.451       .  S
C1040      C1045   1.495       .  S
C1040      C1041   1.404       .  A
C1041      C1042   1.409       .  A
C1041      C1046   1.453       .  S
C1042      C1043   1.416       .  A
C1042      C1058   1.439       .  S
C1043      C1044   1.418       .  A
C1044      C1047   1.445       .  S
C1045      C1048   1.408       .  A
C1045      C1052   1.408       .  A
C1046      N1063   1.157       .  T
C1047      N1065   1.156       .  T
C1048      C1049   1.411       .  A
C1048      C1053   1.451       .  S
C1049      C1050   1.422       .  A
C1049      C1055   1.452       .  S
C1050      C1051   1.423       .  A
C1051      C1052   1.410       .  A
C1051      C1054   1.452       .  S
C1052      C1056   1.452       .  S
C1053      N1060   1.157       .  T
C1054      N1061   1.157       .  T
C1056      N1062   1.157       .  T
C1057      N1066   1.157       .  T
C1058      N1064   1.154       .  T
C1067      C1068   1.410       .  A
C1067      C1072   1.406       .  A
C1067      C1085   1.448       .  S
C1068      C1073   1.496       .  S
C1068      C1069   1.411       .  A
C1069      C1070   1.413       .  A
C1069      C1074   1.450       .  S
C1070      C1071   1.417       .  A
C1070      C1086   1.452       .  S
C1071      C1072   1.412       .  A
C1073      C1076   1.402       .  A
C1073      C1080   1.404       .  A
C1074      N1091   1.157       .  T
C1075      N1093   1.156       .  T
C1076      C1077   1.413       .  A
C1076      C1081   1.454       .  S
C1077      C1078   1.434       .  A
C1077      C1083   1.447       .  S
C1078      C1079   1.426       .  A
C1079      C1080   1.415       .  A
C1079      C1082   1.444       .  S
C1080      C1084   1.452       .  S
C1081      N1088   1.157       .  T
C1082      N1089   1.155       .  T
C1083      N1087   1.158       .  T
C1084      N1090   1.157       .  T
C1085      N1094   1.156       .  T
C1086      N1092   1.158       .  T
C1095      C1096   1.413       .  A
C1095      C1100   1.411       .  A
C1095      C1113   1.451       .  S
C1096      C1101   1.504       .  S
C1096      C1097   1.413       .  A
C1097      C1098   1.413       .  A
C1097      C1102   1.450       .  S
C1098      C1099   1.414       .  A
C1098      C1114   1.450       .  S
C1099      C1100   1.411       .  A
C1100      C1103   1.448       .  S
C1101      C1104   1.407       .  A
C1101      C1108   1.407       .  A
C1102      N1119   1.157       .  T
C1103      N1523   1.156   1_545  T
C1104      C1105   1.415       .  A
C1104      C1109   1.452       .  S
C1105      C1106   1.425       .  A
C1105      C1111   1.446       .  S
C1106      C1107   1.428       .  A
C1107      C1108   1.414       .  A
C1107      C1110   1.448       .  S
C1108      C1112   1.453       .  S
C1109      N1116   1.157       .  T
C1110      N1117   1.157       .  T
C1111      N1115   1.156       .  T
C1112      N1118   1.157       .  T
C1113      N1122   1.157       .  T
C1114      N1120   1.157       .  T
N1121      C1505   1.156       .  T
C1123      C1124   1.410       .  A
C1123      C1128   1.413       .  A
C1123      C1141   1.450       .  S
C1124      C1129   1.500       .  S
C1124      C1125   1.408       .  A
C1125      C1126   1.412       .  A
C1125      C1130   1.451       .  S
C1126      C1127   1.414       .  A
C1126      C1142   1.445       .  S
C1127      C1128   1.414       .  A
C1128      C1131   1.447       .  S
C1129      C1132   1.412       .  A
C1129      C1136   1.411       .  A
C1130      N1147   1.157       .  T
C1131      N1149   1.157       .  T
C1132      C1133   1.414       .  A
C1132      C1137   1.449       .  S
C1133      C1134   1.412       .  A
C1133      C1139   1.450       .  S
C1134      C1135   1.412       .  A
C1135      C1136   1.411       .  A
C1135      C1138   1.450       .  S
C1136      C1140   1.451       .  S
C1137      N1144   1.157       .  T
C1138      N1145   1.157       .  T
C1139      N1143   1.157       .  T
C1140      N1146   1.157       .  T
C1141      N1150   1.157       .  T
C1142      N1148   1.156       .  T
C1151      C1152   1.405       .  A
C1151      C1156   1.414       .  A
C1151      C1169   1.452       .  S
C1152      C1157   1.503       .  S
C1152      C1153   1.404       .  A
C1153      C1154   1.415       .  A
C1153      C1158   1.451       .  S
C1154      C1155   1.427       .  A
C1154      C1170   1.442       .  S
C1155      C1156   1.431       .  A
C1156      C1159   1.447       .  S
C1157      C1160   1.409       .  A
C1157      C1164   1.411       .  A
C1158      N1175   1.157       .  T
C1159      N1177   1.158       .  T
C1160      C1161   1.414       .  A
C1160      C1165   1.451       .  S
C1161      C1162   1.423       .  A
C1161      C1167   1.451       .  S
C1162      C1163   1.421       .  A
C1163      C1164   1.411       .  A
C1163      C1166   1.452       .  S
C1164      C1168   1.452       .  S
C1165      N1172   1.157       .  T
C1166      N1173   1.158   1_655  T
C1167      N1171   1.158       .  T
C1168      N1174   1.157       .  T
C1169      N1178   1.157       .  T
C1170      N1176   1.156       .  T
C1179      C1180   1.408       .  A
C1179      C1184   1.413       .  A
C1179      C1197   1.453       .  S
C1180      C1185   1.501       .  S
C1180      C1181   1.409       .  A
C1181      C1182   1.414       .  A
C1181      C1186   1.452       .  S
C1182      C1183   1.424       .  A
C1182      C1198   1.451       .  S
C1183      C1184   1.427       .  A
C1184      C1187   1.452       .  S
C1185      C1188   1.406       .  A
C1185      C1192   1.406       .  A
C1186      N1203   1.157       .  T
C1187      N1205   1.157   1_545  T
C1188      C1189   1.412       .  A
C1188      C1193   1.453       .  S
C1189      C1190   1.424       .  A
C1189      C1195   1.446       .  S
C1190      C1191   1.426       .  A
C1191      C1192   1.413       .  A
C1191      C1194   1.447       .  S
C1192      C1196   1.452       .  S
C1193      N1200   1.157       .  T
C1194      N1201   1.156       .  T
C1195      N1199   1.156       .  T
C1196      N1202   1.157       .  T
C1197      N1206   1.157       .  T
C1198      N1204   1.157       .  T
C1207      H1208   1.106       .  S
C1207      C1213   1.521       .  S
C1207      C1212   1.555       .  S
C1207      C1211   1.575       .  S
C1209      H1210   1.102       .  S
C1209      C1215   1.539       .  S
C1209      C1214   1.545       .  S
C1209      C1216   1.562       .  S
C1211      C1214   1.408       .  D
C1211      C1557   1.555       .  S
C1212      C1215   1.384       .  D
C1212      C1592   1.521       .  S
C1213      C1216   1.368       .  D
C1213      C1529   1.503       .  S
C1214      C1480   1.530       .  S
C1215      C1508   1.526       .  S
C1216      C1445   1.506       .  S
C1217      H1218   1.106       .  S
C1217      C1223   1.551       .  S
C1217      C1222   1.547       .  S
C1217      C1221   1.549       .  S
C1219      H1220   1.105       .  S
C1219      C1225   1.544       .  S
C1219      C1224   1.545       .  S
C1219      C1226   1.547       .  S
C1221      C1224   1.382       .  D
C1221      C1389   1.518       .  S
C1222      C1225   1.379       .  D
C1222      C1361   1.513       .  S
C1223      C1226   1.387       .  D
C1223      C1417   1.519       .  S
C1224      C1312   1.508       .  S
C1225      C1284   1.511       .  S
C1226      C1333   1.516       .  S
O1227      C1243   1.274       .  A
C1228      O1244   1.276       .  A
C1228      O1241   1.274       .  A
C1228      C1277   1.494       .  S
O1229      C1242   1.274       .  A
O1229     Cd1236   2.067       .  S
O1230      C1248   1.276       .  A
O1230     Cd1239   2.076   1_556  S
O1231      C1245   1.274       .  A
O1232      C1243   1.272       .  A
O1232     Cd1235   2.050       .  S
Zn1233     O1246   2.016   1_554  S
Zn1233     O1238   1.947       .  S
O1234      C1245   1.276       .  A
Cd1235     O1237   2.058   1_554  S
Cd1236     O1238   2.001   1_556  S
O1237      C1247   1.273       .  A
Cd1239     O1241   2.066       .  S
O1240      C1247   1.276       .  A
C1242      O1246   1.274       .  A
C1242      C1452   1.499       .  S
C1243      C1305   1.475       .  S
C1245      C1340   1.490       .  S
C1247      C1473   1.487       .  S
C1248      O1249   1.278       .  A
C1248      C1501   1.487       .  S
O1250      C1266   1.274       .  A
C1251      O1267   1.276       .  A
C1251      O1264   1.275       .  A
C1251      C1564   1.503       .  S
O1252      C1265   1.276       .  A
O1253      C1271   1.275       .  A
O1253     Cd1262   2.070       .  S
O1254      C1268   1.277       .  A
O1255      C1266   1.277       .  A
O1255     Cd1258   2.088       .  S
Zn1256     O1269   2.033       .  S
O1257      C1268   1.276       .  A
Cd1258     O1260   2.072       .  S
Cd1259     O1261   2.011       .  S
O1260      C1270   1.275       .  A
Cd1262     O1264   2.073       .  S
O1263      C1270   1.278       .  A
C1265      O1269   1.276       .  A
C1265      C1424   1.489       .  S
C1266      C1585   1.509       .  S
C1268      C1536   1.484       .  S
C1270      C1368   1.493       .  S
C1271      O1272   1.277       .  A
C1271      C1396   1.494       .  S
C1273      C1274   1.411       .  A
C1273      C1278   1.410       .  A
C1273      C1291   1.452       .  S
C1274      C1279   1.501       .  S
C1274      C1275   1.412       .  A
C1275      C1276   1.412       .  A
C1275      C1280   1.451       .  S
C1276      C1277   1.417       .  A
C1276      C1292   1.451       .  S
C1277      C1278   1.419       .  A
C1278      C1281   1.451       .  S
C1279      C1282   1.409       .  A
C1279      C1286   1.408       .  A
C1280      N1297   1.157       .  T
C1281      N1299   1.157       .  T
C1282      C1283   1.413       .  A
C1282      C1287   1.452       .  S
C1283      C1284   1.421       .  A
C1283      C1289   1.449       .  S
C1284      C1285   1.422       .  A
C1285      C1286   1.411       .  A
C1285      C1288   1.448       .  S
C1286      C1290   1.452       .  S
C1287      N1294   1.157       .  T
C1288      N1295   1.157       .  T
C1289      N1293   1.157       .  T
C1290      N1296   1.157       .  T
C1291      N1300   1.157       .  T
C1292      N1298   1.158       .  T
C1301      C1302   1.411       .  A
C1301      C1306   1.410       .  A
C1301      C1319   1.450       .  S
C1302      C1307   1.493       .  S
C1302      C1303   1.411       .  A
C1303      C1304   1.407       .  A
C1303      C1308   1.450       .  S
C1304      C1305   1.410       .  A
C1304      C1320   1.452       .  S
C1305      C1306   1.412       .  A
C1306      C1309   1.451       .  S
C1307      C1310   1.406       .  A
C1307      C1314   1.405       .  A
C1308      N1325   1.157       .  T
C1309      N1327   1.157   1_554  T
C1310      C1311   1.410       .  A
C1310      C1315   1.453       .  S
C1311      C1312   1.423       .  A
C1311      C1317   1.448       .  S
C1312      C1313   1.422       .  A
C1313      C1314   1.410       .  A
C1313      C1316   1.448       .  S
C1314      C1318   1.452       .  S
C1315      N1322   1.157       .  T
C1316      N1323   1.157       .  T
C1317      N1321   1.157       .  T
C1318      N1324   1.157       .  T
C1319      N1328   1.157       .  T
C1320      N1326   1.157       .  T
C1329      C1330   1.406       .  A
C1329      C1334   1.413       .  A
C1329      C1347   1.451       .  S
C1330      C1335   1.496       .  S
C1330      C1331   1.404       .  A
C1331      C1332   1.411       .  A
C1331      C1336   1.454       .  S
C1332      C1333   1.426       .  A
C1332      C1348   1.447       .  S
C1333      C1334   1.423       .  A
C1334      C1337   1.448       .  S
C1335      C1338   1.409       .  A
C1335      C1342   1.410       .  A
C1336      N1353   1.157       .  T
C1337      N1355   1.157       .  T
C1338      C1339   1.409       .  A
C1338      C1343   1.450       .  S
C1339      C1340   1.416       .  A
C1339      C1345   1.452       .  S
C1340      C1341   1.418       .  A
C1341      C1342   1.412       .  A
C1341      C1344   1.451       .  S
C1342      C1346   1.451       .  S
C1343      N1350   1.157       .  T
C1344      N1351   1.158       .  T
C1346      N1352   1.157       .  T
C1347      N1356   1.157       .  T
C1348      N1354   1.156       .  T
C1357      C1358   1.406       .  A
C1357      C1362   1.412       .  A
C1357      C1375   1.451       .  S
C1358      C1363   1.498       .  S
C1358      C1359   1.406       .  A
C1359      C1360   1.412       .  A
C1359      C1364   1.452       .  S
C1360      C1361   1.422       .  A
C1360      C1376   1.447       .  S
C1361      C1362   1.423       .  A
C1362      C1365   1.448       .  S
C1363      C1366   1.410       .  A
C1363      C1370   1.409       .  A
C1364      N1381   1.157       .  T
C1365      N1383   1.157       .  T
C1366      C1367   1.412       .  A
C1366      C1371   1.450       .  S
C1367      C1368   1.416       .  A
C1367      C1373   1.451       .  S
C1368      C1369   1.419       .  A
C1369      C1370   1.412       .  A
C1369      C1372   1.451       .  S
C1370      C1374   1.451       .  S
C1371      N1378   1.157       .  T
C1373      N1377   1.157       .  T
C1374      N1380   1.157       .  T
C1375      N1384   1.157       .  T
C1376      N1382   1.156       .  T
C1385      C1386   1.406       .  A
C1385      C1390   1.412       .  A
C1385      C1403   1.453       .  S
C1386      C1391   1.499       .  S
C1386      C1387   1.405       .  A
C1387      C1388   1.414       .  A
C1387      C1392   1.452       .  S
C1388      C1389   1.426       .  A
C1388      C1404   1.447       .  S
C1389      C1390   1.424       .  A
C1390      C1393   1.448       .  S
C1391      C1394   1.410       .  A
C1391      C1398   1.410       .  A
C1392      N1409   1.157       .  T
C1393      N1411   1.156       .  T
C1394      C1395   1.412       .  A
C1394      C1399   1.451       .  S
C1395      C1396   1.418       .  A
C1395      C1401   1.452       .  S
C1396      C1397   1.417       .  A
C1397      C1398   1.412       .  A
C1397      C1400   1.451       .  S
C1398      C1402   1.451       .  S
C1399      N1406   1.157       .  T
C1400      N1407   1.157   1_565  T
C1401      N1405   1.158       .  T
C1402      N1408   1.157       .  T
C1403      N1412   1.157       .  T
C1404      N1410   1.157       .  T
C1413      C1414   1.406       .  A
C1413      C1418   1.413       .  A
C1413      C1431   1.452       .  S
C1414      C1419   1.503       .  S
C1414      C1415   1.407       .  A
C1415      C1416   1.415       .  A
C1415      C1420   1.451       .  S
C1416      C1417   1.425       .  A
C1416      C1432   1.448       .  S
C1417      C1418   1.424       .  A
C1418      C1421   1.447       .  S
C1419      C1422   1.412       .  A
C1419      C1426   1.413       .  A
C1420      N1437   1.157       .  T
C1421      N1439   1.156       .  T
C1422      C1423   1.414       .  A
C1422      C1427   1.450       .  S
C1423      C1424   1.414       .  A
C1423      C1429   1.450       .  S
C1424      C1425   1.413       .  A
C1425      C1426   1.412       .  A
C1426      C1430   1.451       .  S
C1427      N1434   1.157       .  T
C1428      N1435   1.157   1_455  T
C1430      N1436   1.157       .  T
C1431      N1440   1.157       .  T
C1432      N1438   1.157       .  T
C1441      C1442   1.407       .  A
C1441      C1446   1.413       .  A
C1441      C1459   1.451       .  S
C1442      C1447   1.495       .  S
C1442      C1443   1.404       .  A
C1443      C1444   1.409       .  A
C1443      C1448   1.453       .  S
C1444      C1445   1.415       .  A
C1444      C1460   1.439       .  S
C1445      C1446   1.418       .  A
C1446      C1449   1.445       .  S
C1447      C1450   1.408       .  A
C1447      C1454   1.408       .  A
C1448      N1465   1.157       .  T
C1449      N1467   1.156       .  T
C1450      C1451   1.411       .  A
C1450      C1455   1.451       .  S
C1451      C1452   1.422       .  A
C1451      C1457   1.452       .  S
C1452      C1453   1.423       .  A
C1453      C1454   1.410       .  A
C1453      C1456   1.452       .  S
C1454      C1458   1.452       .  S
C1455      N1462   1.157       .  T
C1456      N1463   1.157       .  T
C1458      N1464   1.157       .  T
C1459      N1468   1.157       .  T
C1460      N1466   1.154       .  T
C1469      C1470   1.410       .  A
C1469      C1474   1.406       .  A
C1469      C1487   1.448       .  S
C1470      C1475   1.496       .  S
C1470      C1471   1.411       .  A
C1471      C1472   1.413       .  A
C1471      C1476   1.450       .  S
C1472      C1473   1.417       .  A
C1472      C1488   1.452       .  S
C1473      C1474   1.412       .  A
C1475      C1478   1.402       .  A
C1475      C1482   1.404       .  A
C1476      N1493   1.157       .  T
C1477      N1495   1.156       .  T
C1478      C1479   1.413       .  A
C1478      C1483   1.454       .  S
C1479      C1480   1.434       .  A
C1479      C1485   1.447       .  S
C1480      C1481   1.426       .  A
C1481      C1482   1.415       .  A
C1481      C1484   1.444       .  S
C1482      C1486   1.452       .  S
C1483      N1490   1.157       .  T
C1484      N1491   1.155       .  T
C1485      N1489   1.158       .  T
C1486      N1492   1.157       .  T
C1487      N1496   1.156       .  T
C1488      N1494   1.158       .  T
C1497      C1498   1.413       .  A
C1497      C1502   1.411       .  A
C1497      C1515   1.451       .  S
C1498      C1503   1.504       .  S
C1498      C1499   1.413       .  A
C1499      C1500   1.413       .  A
C1499      C1504   1.450       .  S
C1500      C1501   1.414       .  A
C1500      C1516   1.450       .  S
C1501      C1502   1.411       .  A
C1502      C1505   1.448       .  S
C1503      C1506   1.407       .  A
C1503      C1510   1.407       .  A
C1504      N1521   1.157       .  T
C1506      C1507   1.415       .  A
C1506      C1511   1.452       .  S
C1507      C1508   1.425       .  A
C1507      C1513   1.446       .  S
C1508      C1509   1.428       .  A
C1509      C1510   1.414       .  A
C1509      C1512   1.448       .  S
C1510      C1514   1.453       .  S
C1511      N1518   1.157       .  T
C1512      N1519   1.157       .  T
C1513      N1517   1.156       .  T
C1514      N1520   1.157       .  T
C1515      N1524   1.157       .  T
C1516      N1522   1.157       .  T
C1525      C1526   1.410       .  A
C1525      C1530   1.413       .  A
C1525      C1543   1.450       .  S
C1526      C1531   1.500       .  S
C1526      C1527   1.408       .  A
C1527      C1528   1.412       .  A
C1527      C1532   1.451       .  S
C1528      C1529   1.414       .  A
C1528      C1544   1.445       .  S
C1529      C1530   1.414       .  A
C1530      C1533   1.447       .  S
C1531      C1534   1.412       .  A
C1531      C1538   1.411       .  A
C1532      N1549   1.157       .  T
C1533      N1551   1.157       .  T
C1534      C1535   1.414       .  A
C1534      C1539   1.449       .  S
C1535      C1536   1.412       .  A
C1535      C1541   1.450       .  S
C1536      C1537   1.412       .  A
C1537      C1538   1.411       .  A
C1537      C1540   1.450       .  S
C1538      C1542   1.451       .  S
C1539      N1546   1.157       .  T
C1540      N1547   1.157       .  T
C1541      N1545   1.157       .  T
C1542      N1548   1.157       .  T
C1543      N1552   1.157       .  T
C1544      N1550   1.156       .  T
C1553      C1554   1.405       .  A
C1553      C1558   1.414       .  A
C1553      C1571   1.452       .  S
C1554      C1559   1.503       .  S
C1554      C1555   1.404       .  A
C1555      C1556   1.415       .  A
C1555      C1560   1.451       .  S
C1556      C1557   1.427       .  A
C1556      C1572   1.442       .  S
C1557      C1558   1.431       .  A
C1558      C1561   1.447       .  S
C1559      C1562   1.409       .  A
C1559      C1566   1.411       .  A
C1560      N1577   1.157       .  T
C1561      N1579   1.158       .  T
C1562      C1563   1.414       .  A
C1562      C1567   1.451       .  S
C1563      C1564   1.423       .  A
C1563      C1569   1.451       .  S
C1564      C1565   1.421       .  A
C1565      C1566   1.411       .  A
C1565      C1568   1.452       .  S
C1566      C1570   1.452       .  S
C1567      N1574   1.157       .  T
C1568      N1575   1.158   1_655  T
C1569      N1573   1.158       .  T
C1570      N1576   1.157       .  T
C1571      N1580   1.157       .  T
C1572      N1578   1.156       .  T
C1581      C1582   1.408       .  A
C1581      C1586   1.413       .  A
C1581      C1599   1.453       .  S
C1582      C1587   1.501       .  S
C1582      C1583   1.409       .  A
C1583      C1584   1.414       .  A
C1583      C1588   1.452       .  S
C1584      C1585   1.424       .  A
C1584      C1600   1.451       .  S
C1585      C1586   1.427       .  A
C1586      C1589   1.452       .  S
C1587      C1590   1.405       .  A
C1587      C1594   1.406       .  A
C1588      N1605   1.157       .  T
C1589      N1607   1.157       .  T
C1590      C1591   1.412       .  A
C1590      C1595   1.453       .  S
C1591      C1592   1.424       .  A
C1591      C1597   1.446       .  S
C1592      C1593   1.426       .  A
C1593      C1594   1.413       .  A
C1593      C1596   1.447       .  S
C1594      C1598   1.452       .  S
C1595      N1602   1.157       .  T
C1596      N1603   1.156       .  T
C1597      N1601   1.156       .  T
C1598      N1604   1.157       .  T
C1599      N1608   1.157       .  T
C1600      N1606   1.157       .  T
