geometry optimzed in LAMMPS
_audit_creation_date              2020-11-30 
_audit_creation_method            'lammps2cif' 
_symmetry_space_group_name_H-M    'P1' 
_symmetry_Int_Tables_number       1 
_symmetry_cell_setting            triclinic 
loop_ 
_symmetry_equiv_pos_as_xyz 
  x,y,z 
_cell_length_a                    51.26269595 
_cell_length_b                    32.40365271428716 
_cell_length_c                    39.57922583251846 
_cell_angle_alpha                 89.87793444390931 
_cell_angle_beta                  90.01699953309459 
_cell_angle_gamma                 90.14005882543836 
loop_ 
_atom_site_label 
_atom_site_type_symbol 
_atom_site_fract_x 
_atom_site_fract_y 
_atom_site_fract_z 
_atom_site_charge 
C1          C  0.83447163  0.84327669  0.46907796     0.80300
N2          N  0.81990565  0.80805621  0.46893655    -0.78000
C3          C  0.81465390  0.78741056  0.49830147     0.82700
N4          N  0.82440992  0.80238071  0.52799443    -0.78000
C5          C  0.83925962  0.83722956  0.52833686     0.82800
N6          N  0.84402363  0.85716000  0.49888418    -0.79700
C7          C  0.73881227  0.57393845  0.46602064     0.80300
N8          N  0.72868285  0.56052402  0.49562200    -0.78000
C9          C  0.73231215  0.58136300  0.52470483     0.82700
N10         N  0.74678884  0.61650270  0.52441798    -0.78000
C11         C  0.75735175  0.63096124  0.49499226     0.82800
N12         N  0.75305632  0.60955100  0.46573431    -0.79700
N13         N  0.87583553  0.94760292  0.29372853    -0.27200
N14         N  0.89791359  0.95194430  0.31070502    -0.35100
C15         C  0.89482356  0.93645613  0.34192186     0.01100
C16         C  0.86970730  0.92120720  0.34494982     0.07100
C17         C  0.85817682  0.92870935  0.31381950    -0.06000
H18         H  0.90990471  0.93611881  0.36105218     0.07800
H19         H  0.83827878  0.92196460  0.30656073     0.09000
Cu20       Cu  0.93200490  0.97788454  0.29184592     0.44200
Cu21       Cu  0.87068763  0.96950051  0.24455249     0.42000
Cu22       Cu  0.93069729  0.01073632  0.20698304     0.43900
N23         N  0.96516495  0.99802988  0.26667024    -0.34600
N24         N  0.96475087  0.00909170  0.23456020    -0.28900
C25         C  0.98919476  0.01749365  0.22426941    -0.05000
C26         C  0.00573107  0.01189555  0.25145378     0.07200
C27         C  0.98988421  0.99967403  0.27796082     0.01000
H28         H  0.99451980  0.02656024  0.19885992     0.08700
H29         H  0.99598868  0.99091827  0.30313860     0.07800
N30         N  0.89459822  0.01213011  0.18411619    -0.36100
N31         N  0.87258645  0.99797094  0.19726521    -0.28200
C32         C  0.85305226  0.00497041  0.17512755    -0.03500
C33         C  0.86354288  0.02406322  0.14685122     0.05100
C34         C  0.88982126  0.02794338  0.15344268     0.03200
H35         H  0.83290542  0.99619910  0.17906877     0.08300
H36         H  0.90446968  0.04149535  0.13713016     0.07200
N37         N  0.16710899  0.01547144  0.30690952    -0.27200
N38         N  0.14435567  0.02451764  0.32073181    -0.35100
C39         C  0.14832109  0.04131849  0.35123768     0.01100
C40         C  0.17486190  0.04339428  0.35699523     0.07100
C41         C  0.18623624  0.02660510  0.32838092    -0.06000
H42         H  0.13294250  0.05230798  0.36760730     0.07800
H43         H  0.20683448  0.02281876  0.32340848     0.09000
Cu44       Cu  0.10858286  0.01669708  0.29785052     0.44200
Cu45       Cu  0.17096254  0.98949952  0.25915567     0.42000
Cu46       Cu  0.10955323  0.98839311  0.21182707     0.43900
N47         N  0.07514763  0.01346465  0.26909731    -0.34600
N48         N  0.07547669  0.00454200  0.23657621    -0.28900
C49         C  0.05085627  0.00472848  0.22477215    -0.05000
C50         C  0.03433636  0.01363135  0.25142472     0.07200
C51         C  0.05036801  0.01890370  0.27913074     0.01000
H52         H  0.04532415  0.99691299  0.19918602     0.08700
H53         H  0.04446837  0.02564015  0.30477244     0.07800
N54         N  0.14471952  0.96578799  0.19390018    -0.36100
N55         N  0.16707548  0.96593839  0.21055459    -0.28200
C56         C  0.18559534  0.94878941  0.19092933    -0.03500
C57         C  0.17434564  0.93744586  0.16038991     0.05100
C58         C  0.14833387  0.94840894  0.16356416     0.03200
H59         H  0.20580779  0.94532419  0.19823762     0.08300
H60         H  0.13284622  0.94397964  0.14540592     0.07200
N61         N  0.88635181  0.00513471  0.78918479    -0.27200
N62         N  0.90839520  0.01125164  0.80585859    -0.35100
C63         C  0.90295687  0.02660839  0.83648667     0.01100
C64         C  0.87621233  0.03038940  0.83952911     0.07100
C65         C  0.86624626  0.01683610  0.80892708    -0.06000
H66         H  0.91751765  0.03420249  0.85527685     0.07800
H67         H  0.84589354  0.01433627  0.80197166     0.09000
Cu68       Cu  0.94539428  0.99840269  0.78783176     0.44200
Cu69       Cu  0.88485741  0.97862492  0.74125405     0.42000
Cu70       Cu  0.94898232  0.95756736  0.70481192     0.43900
N71         N  0.98059855  0.98747641  0.76392973    -0.34600
N72         N  0.98196033  0.97377146  0.73256952    -0.28900
C73         C  0.00720553  0.97143603  0.72342381    -0.05000
C74         C  0.02240617  0.98370250  0.75054994     0.07200
C75         C  0.00490452  0.99352251  0.77586368     0.01000
H76         H  0.01400248  0.96084348  0.69907252     0.08700
H77         H  0.00945705  0.00489465  0.80086964     0.07800
N78         N  0.91375350  0.93896861  0.68332048    -0.36100
N79         N  0.89045528  0.94642173  0.69625758    -0.28200
C80         C  0.87212971  0.92975389  0.67593344    -0.03500
C81         C  0.88446039  0.91080220  0.64884046     0.05100
C82         C  0.91084856  0.91748395  0.65455291     0.03200
H83         H  0.85137554  0.93186119  0.68044103     0.08300
H84         H  0.92692113  0.90731592  0.63897921     0.07200
N85         N  0.18433112  0.96621300  0.80562741    -0.27200
N86         N  0.16131537  0.96350523  0.82055252    -0.35100
C87         C  0.16462108  0.94884144  0.85191353     0.01100
C88         C  0.19093734  0.94184223  0.85720173     0.07100
C89         C  0.20291207  0.95315014  0.82720125    -0.06000
H90         H  0.14883820  0.94323224  0.86948072     0.07800
H91         H  0.22353886  0.95254226  0.82149921     0.09000
Cu92       Cu  0.12566164  0.97800998  0.79876780     0.44200
Cu93       Cu  0.18922957  0.98768593  0.75687512     0.42000
Cu94       Cu  0.12738129  0.99658470  0.71118577     0.43900
N95         N  0.09188558  0.98436874  0.77037089    -0.34600
N96         N  0.09263038  0.98950075  0.73728477    -0.28900
C97         C  0.06810978  0.99009085  0.72518047    -0.05000
C98         C  0.05109168  0.98564113  0.75206649     0.07200
C99         C  0.06681244  0.98225865  0.78040204     0.01000
H100        H  0.06305239  0.99396457  0.69882678     0.08700
H101        H  0.06053323  0.97748399  0.80621559     0.07800
N102        N  0.16369434  0.01083056  0.69126064    -0.36100
N103        N  0.18609862  0.00873726  0.70776700    -0.28200
C104        C  0.20545631  0.02193211  0.68740301    -0.03500
C105        C  0.19463589  0.03220147  0.65655411     0.05100
C106        C  0.16820454  0.02492878  0.65994192     0.03200
H107        H  0.22584255  0.02336055  0.69439289     0.08300
H108        H  0.15323366  0.03008319  0.64113377     0.07200
C109        C  0.33092515  0.61222592  0.97819339     0.80300
N110        N  0.31615508  0.64708434  0.97816783    -0.78000
C111        C  0.30899680  0.66518941  0.00786083     0.82700
N112        N  0.31693806  0.64807956  0.03760155    -0.78000
C113        C  0.33158866  0.61329462  0.03791571     0.82800
N114        N  0.33830240  0.59585706  0.00814767    -0.79700
C115        C  0.22838764  0.87202869  0.98274884     0.80300
N116        N  0.24334613  0.83749460  0.98284579    -0.78000
C117        C  0.24904885  0.81768716  0.01237884     0.82700
N118        N  0.23940655  0.83288980  0.04199961    -0.78000
C119        C  0.22446496  0.86749316  0.04209459     0.82800
N120        N  0.21925495  0.88654775  0.01243757    -0.79700
N121        N  0.66767851  0.48872508  0.69071927    -0.27200
N122        N  0.64560847  0.50102084  0.67666289    -0.35100
C123        C  0.65105032  0.51961734  0.64712369     0.01100
C124        C  0.67783610  0.51931238  0.64235354     0.07100
C125        C  0.68772056  0.49929838  0.67051541    -0.06000
H126        H  0.63652431  0.53296274  0.63057898     0.07800
H127        H  0.70794563  0.49268980  0.67602674     0.09000
Cu128      Cu  0.60889615  0.49365675  0.69812589     0.44200
Cu129      Cu  0.67003290  0.45948181  0.73721201     0.42000
Cu130      Cu  0.61043801  0.46667664  0.78550844     0.43900
N131        N  0.57542872  0.48757749  0.72729206    -0.34600
N132        N  0.57625737  0.47905741  0.75992897    -0.28900
C133        C  0.55183201  0.47750277  0.77218412    -0.05000
C134        C  0.53475823  0.48497006  0.74588161     0.07200
C135        C  0.55033287  0.49119404  0.71774178     0.01000
H136        H  0.54689021  0.47027312  0.79810684     0.08700
H137        H  0.54393400  0.49789767  0.69227017     0.07800
N138        N  0.64505162  0.44397235  0.80453635    -0.36100
N139        N  0.66677451  0.43997175  0.78689981    -0.28200
C140        C  0.68522182  0.42306578  0.80678022    -0.03500
C141        C  0.67456555  0.41663868  0.83852790     0.05100
C142        C  0.64904480  0.43003487  0.83602210     0.03200
H143        H  0.70502524  0.41677518  0.79891716     0.08300
H144        H  0.63425803  0.42932986  0.85550365     0.07200
N145        N  0.37069719  0.47116658  0.70456721    -0.27200
N146        N  0.39275245  0.46875600  0.68733257    -0.35100
C147        C  0.38749885  0.45638892  0.65571387     0.01100
C148        C  0.36095514  0.45020971  0.65293388     0.07100
C149        C  0.35080534  0.45962464  0.68437233    -0.06000
H150        H  0.40204624  0.45117810  0.63639525     0.07800
H151        H  0.33053164  0.45851819  0.69191206     0.09000
Cu152      Cu  0.42951385  0.47943251  0.70718250     0.44200
Cu153      Cu  0.36905748  0.49067071  0.75452247     0.42000
Cu154      Cu  0.43267023  0.49376624  0.79610211     0.43900
N155        N  0.46444340  0.48326378  0.73323618    -0.34600
N156        N  0.46559598  0.48703212  0.76642377    -0.28900
C157        C  0.49074372  0.48781884  0.77608267    -0.05000
C158        C  0.50611395  0.48479979  0.74747544     0.07200
C159        C  0.48882672  0.48197008  0.72075232     0.01000
H160        H  0.49731403  0.49130620  0.80190203     0.08700
H161        H  0.49357531  0.47890469  0.69424758     0.07800
N162        N  0.39814800  0.51280743  0.81817298    -0.36100
N163        N  0.37509848  0.51285372  0.80315348    -0.28200
C164        C  0.35739500  0.52941556  0.82429631    -0.03500
C165        C  0.36995912  0.54004248  0.85405530     0.05100
C166        C  0.39571599  0.52890747  0.84920222     0.03200
H167        H  0.33690482  0.53301510  0.81850424     0.08300
H168        H  0.41171499  0.53295390  0.86673285     0.07200
C169        C  0.22294262  0.11388143  0.47558310     0.80300
N170        N  0.23684764  0.14953893  0.47457776    -0.78000
C171        C  0.24773789  0.16508380  0.50324542     0.82700
N172        N  0.24455771  0.14444275  0.53305598    -0.78000
C173        C  0.23099624  0.10832094  0.53411116     0.82800
N174        N  0.22028883  0.09366218  0.50524695    -0.79700
C175        C  0.32936604  0.37004170  0.47115690     0.80300
N176        N  0.33343637  0.39091950  0.50033801    -0.78000
C177        C  0.32273161  0.37800966  0.52982679     0.82700
N178        N  0.30808010  0.34302676  0.52998700    -0.78000
C179        C  0.30375183  0.32143463  0.50106282     0.82800
N180        N  0.31452028  0.33523352  0.47163949    -0.79700
C181        C  0.82526443  0.08883390  0.96088100     0.80300
N182        N  0.83128621  0.07040736  0.99064876    -0.78000
C183        C  0.82311048  0.08605267  0.02052911     0.82700
N184        N  0.80852961  0.12102194  0.02044229    -0.78000
C185        C  0.80214164  0.14009840  0.99089437     0.82800
N186        N  0.81072773  0.12381157  0.96120835    -0.79700
C187        C  0.72023984  0.34558505  0.95921752     0.80300
N188        N  0.73476317  0.31054409  0.95915695    -0.78000
C189        C  0.74322326  0.29353895  0.98870082     0.82700
N190        N  0.73676336  0.31191396  0.01845177    -0.78000
C191        C  0.72224780  0.34689103  0.01890561     0.82800
N192        N  0.71417059  0.36324863  0.98919139    -0.79700
N193        N  0.38869577  0.46177837  0.30192471    -0.27200
N194        N  0.41159576  0.45267914  0.31535603    -0.35100
C195        C  0.40785660  0.43423679  0.34535483     0.01100
C196        C  0.38131391  0.43159698  0.35131885     0.07100
C197        C  0.36973306  0.44911690  0.32310351    -0.06000
H198        H  0.42344643  0.42335283  0.36144737     0.07800
H199        H  0.34907434  0.45302180  0.31854874     0.09000
Cu200      Cu  0.44732215  0.46480960  0.29314114     0.44200
Cu201      Cu  0.38445142  0.49131768  0.25566066     0.42000
Cu202      Cu  0.44561097  0.49994155  0.20863667     0.43900
N203        N  0.48075264  0.47535204  0.26520834    -0.34600
N204        N  0.48007082  0.48698204  0.23324022    -0.28900
C205        C  0.50458962  0.49051823  0.22153713    -0.05000
C206        C  0.52147596  0.48111280  0.24765951     0.07200
C207        C  0.50574675  0.47168572  0.27499013     0.01000
H208        H  0.50969990  0.50019929  0.19620526     0.08700
H209        H  0.51195992  0.46256341  0.30003283     0.07800
N210        N  0.40994756  0.52045010  0.19142632    -0.36100
N211        N  0.38768887  0.51821658  0.20821343    -0.28200
C212        C  0.36860679  0.53459025  0.18901678    -0.03500
C213        C  0.37947977  0.54723170  0.15868336     0.05100
C214        C  0.40570123  0.53806569  0.16129957     0.03200
H215        H  0.34825935  0.53594616  0.19616378     0.08300
H216        H  0.42069319  0.54342972  0.14255629     0.07200
N217        N  0.68486817  0.48207898  0.29366646    -0.27200
N218        N  0.66278404  0.48739001  0.31032668    -0.35100
C219        C  0.66824220  0.49941108  0.34195392     0.01100
C220        C  0.69504848  0.50195950  0.34547893     0.07100
C221        C  0.70502020  0.49107399  0.31426405    -0.06000
H222        H  0.65367225  0.50683924  0.36073925     0.07800
H223        H  0.72535625  0.48966268  0.30707580     0.09000
Cu224      Cu  0.62592079  0.48095567  0.28953930     0.44200
Cu225      Cu  0.68615495  0.46337381  0.24367833     0.42000
Cu226      Cu  0.62396116  0.47301226  0.19970395     0.43900
N227        N  0.59147887  0.48068812  0.26222852    -0.34600
N228        N  0.59083705  0.47939311  0.22888235    -0.28900
C229        C  0.56587338  0.48014864  0.21849185    -0.05000
C230        C  0.55008834  0.48157426  0.24675963     0.07200
C231        C  0.56691538  0.48185655  0.27406162     0.01000
H232        H  0.55970438  0.47847716  0.19238447     0.08700
H233        H  0.56173167  0.48287468  0.30054069     0.07800
N234        N  0.65791680  0.45194291  0.17764290    -0.36100
N235        N  0.68031611  0.44687432  0.19369227    -0.28200
C236        C  0.69763447  0.42968657  0.17242608    -0.03500
C237        C  0.68557795  0.42433401  0.14147460     0.05100
C238        C  0.66044484  0.43867614  0.14572892     0.03200
H239        H  0.71752120  0.42191014  0.17895777     0.08300
H240        H  0.64485992  0.43836631  0.12728945     0.07200
C241        C  0.71443364  0.36704947  0.05109664    -0.05400
C242        C  0.70046626  0.40439273  0.04960621    -0.32800
C243        C  0.69155667  0.42361134  0.07888314     0.36400
C244        C  0.69651571  0.40583097  0.11062203    -0.04600
C245        C  0.71109756  0.36934433  0.11257018    -0.32700
C246        C  0.71994543  0.34977317  0.08316330     0.36300
H247        H  0.69612520  0.41889620  0.02558353     0.16700
O248        O  0.67801010  0.45992935  0.07614205    -0.60200
H249        H  0.71493652  0.35525107  0.13691520     0.16700
O250        O  0.73303958  0.31310833  0.08619151    -0.60300
H251        H  0.75160309  0.32088759  0.08934792     0.43700
H252        H  0.69125116  0.48198867  0.07910116     0.43700
C253        C  0.78698345  0.17931897  0.99084423    -0.05400
C254        C  0.78302259  0.20048787  0.96020592    -0.32800
C255        C  0.76925103  0.23769164  0.95904371     0.36400
C256        C  0.75866174  0.25463149  0.98887535    -0.05800
C257        C  0.76279359  0.23366509  0.01956722    -0.32700
C258        C  0.77665007  0.19652061  0.02076831     0.36300
H259        H  0.79081780  0.18845253  0.93679628     0.16700
O260        O  0.76642772  0.25707512  0.92844838    -0.60200
H261        H  0.75503444  0.24579044  0.04296843     0.16700
O262        O  0.78002351  0.17767767  0.05151763    -0.60300
H263        H  0.76442579  0.15989740  0.05454285     0.43700
H264        H  0.78180375  0.27553285  0.92643170     0.43700
C265        C  0.34250596  0.38429992  0.43988711    -0.05400
C266        C  0.36629414  0.40562162  0.44269257    -0.32800
C267        C  0.37925492  0.42052401  0.41410922     0.36400
C268        C  0.36824546  0.41501344  0.38181912    -0.05800
C269        C  0.34437316  0.39391118  0.37887283    -0.32700
C270        C  0.33168062  0.37807773  0.40753942     0.36300
H271        H  0.37503178  0.41080092  0.46725846     0.16700
O272        O  0.40193306  0.44250963  0.41826839    -0.60200
H273        H  0.33561456  0.38938648  0.35423943     0.16700
O274        O  0.30818303  0.35830768  0.40374958    -0.60300
H275        H  0.31265328  0.32936730  0.39811230     0.43700
H276        H  0.41541860  0.42170135  0.42391470     0.43700
C277        C  0.26197608  0.20505453  0.50230043    -0.05400
C278        C  0.26377166  0.22897190  0.53174046    -0.32800
C279        C  0.27684344  0.26696944  0.53174203     0.36400
C280        C  0.28870077  0.28196432  0.50183180    -0.05800
C281        C  0.28673458  0.25799739  0.47232639    -0.32700
C282        C  0.27348694  0.22014112  0.47232151     0.36300
H283        H  0.25475397  0.21842586  0.55497104     0.16700
O284        O  0.27742377  0.28931496  0.56112447    -0.60200
H285        H  0.29571030  0.26830910  0.44901124     0.16700
O286        O  0.27288147  0.19744250  0.44310899    -0.60300
H287        H  0.25848672  0.20938262  0.42953065     0.43700
H288        H  0.29204634  0.27759021  0.57442293     0.43700
C289        C  0.34730476  0.43488077  0.62273508    -0.05400
C290        C  0.35064927  0.45574789  0.59205452    -0.32800
C291        C  0.34140237  0.43886341  0.56183535     0.36400
C292        C  0.32902863  0.39977863  0.56188211    -0.05800
C293        C  0.32446270  0.38008266  0.59309366    -0.32700
C294        C  0.33335454  0.39751704  0.62337012     0.36300
H295        H  0.36102595  0.48492613  0.59142551     0.16700
O296        O  0.34462551  0.46091330  0.53249054    -0.60200
H297        H  0.31496337  0.35021735  0.59404119     0.16700
O298        O  0.33020674  0.37615942  0.65304200    -0.60300
H299        H  0.31280340  0.38440499  0.66157259     0.43700
H300        H  0.36316354  0.45702300  0.52605270     0.43700
C301        C  0.68747022  0.39980871  0.86896010    -0.05400
C302        C  0.70572198  0.36778748  0.86610287    -0.32800
C303        C  0.71695971  0.34997519  0.89498536     0.36400
C304        C  0.70995706  0.36421804  0.92748043    -0.05800
C305        C  0.69228031  0.39725573  0.92992051    -0.32700
C306        C  0.68124871  0.41504452  0.90121177     0.36300
H307        H  0.71086838  0.35587709  0.84143881     0.16700
O308        O  0.73438568  0.31836365  0.89097987    -0.60200
H309        H  0.68667222  0.40951373  0.95428724     0.16700
O310        O  0.66453408  0.44768209  0.90510025    -0.60300
H311        H  0.67560563  0.47267514  0.90282930     0.43700
H312        H  0.75163541  0.33197108  0.88858329     0.43700
C313        C  0.34218268  0.59565476  0.06975639    -0.05400
C314        C  0.36187004  0.56566649  0.06743926    -0.32800
C315        C  0.37360505  0.54935580  0.09614524     0.36400
C316        C  0.36599467  0.56294744  0.12836542    -0.05800
C317        C  0.34574535  0.59184439  0.13118008    -0.32700
C318        C  0.33385174  0.60831810  0.10216325     0.36300
H319        H  0.36866828  0.55484625  0.04317248     0.16700
O320        O  0.39245693  0.51976837  0.09226442    -0.60200
H321        H  0.33953828  0.60233495  0.15586958     0.16700
O322        O  0.31447365  0.63703811  0.10590163    -0.60300
H323        H  0.29801472  0.62090814  0.10648195     0.43700
H324        H  0.38311328  0.49303094  0.09421126     0.43700
C325        C  0.34021780  0.59296514  0.94620450    -0.05400
C326        C  0.32991315  0.60542288  0.91483413    -0.32800
C327        C  0.33904146  0.58819708  0.88451396     0.36400
C328        C  0.35883038  0.55807435  0.88518595    -0.05800
C329        C  0.36902853  0.54561008  0.91634049    -0.32700
C330        C  0.35990171  0.56230926  0.94651712     0.36300
H331        H  0.31486584  0.62879242  0.91369591     0.16700
O332        O  0.32899489  0.60190203  0.85442195    -0.60200
H333        H  0.38420204  0.52241909  0.91744689     0.16700
O334        O  0.37116868  0.54911328  0.97603236    -0.60300
H335        H  0.36198719  0.52306753  0.98186737     0.43700
H336        H  0.34053536  0.62499022  0.84741894     0.43700
C337        C  0.29344646  0.70401189  0.00833316    -0.05400
C338        C  0.28362165  0.71860667  0.03926799    -0.32800
C339        C  0.26951060  0.75544254  0.04119183     0.36400
C340        C  0.26461752  0.77882446  0.01170611    -0.05800
C341        C  0.27446244  0.76423147  0.98074182    -0.32700
C342        C  0.28860076  0.72735599  0.97883594     0.36300
H343        H  0.28682708  0.70142201  0.06239436     0.16700
O344        O  0.26029187  0.76766752  0.07210287    -0.60200
H345        H  0.27123235  0.78140050  0.95761395     0.16700
O346        O  0.29810763  0.71523185  0.94803871    -0.60300
H347        H  0.28358409  0.69992434  0.93718367     0.43700
H348        H  0.27487673  0.78318278  0.08261870     0.43700
C349        C  0.20776849  0.04768798  0.62600047    -0.05400
C350        C  0.22529321  0.08095949  0.62776739    -0.32800
C351        C  0.23432154  0.10016914  0.59812484     0.36400
C352        C  0.22571337  0.08593491  0.56625023    -0.05800
C353        C  0.20997510  0.05027455  0.56499888    -0.32700
C354        C  0.20102461  0.03138979  0.59437498     0.36300
H355        H  0.23091548  0.09338784  0.65210387     0.16700
O356        O  0.25047074  0.13379099  0.60080613    -0.60200
H357        H  0.20360484  0.03750958  0.54110828     0.16700
O358        O  0.18495403  0.99761193  0.59183909    -0.60300
H359        H  0.19661372  0.97341224  0.59427610     0.43700
H360        H  0.26839789  0.12238049  0.60040637     0.43700
C361        C  0.20273085  0.92648078  0.88893394    -0.05400
C362        C  0.19007825  0.93559498  0.91932196    -0.32800
C363        C  0.19855888  0.91900404  0.94982257     0.36400
C364        C  0.22031282  0.89225170  0.95068747    -0.05800
C365        C  0.23366902  0.88418312  0.92035224    -0.32700
C366        C  0.22509438  0.90119972  0.88962088     0.36300
H367        H  0.17312904  0.95548857  0.91956437     0.16700
O368        O  0.18436963  0.92762452  0.97829907    -0.60200
H369        H  0.25056578  0.86416783  0.92031983     0.16700
O370        O  0.23822705  0.89182712  0.86047128    -0.60300
H371        H  0.22988675  0.86624369  0.85193125     0.43700
H372        H  0.19094407  0.95474414  0.98623074     0.43700
C373        C  0.86179159  0.04325850  0.87010510    -0.05400
C374        C  0.83991590  0.06907413  0.86753616    -0.32800
C375        C  0.82748280  0.08405185  0.89668806     0.36400
C376        C  0.83662541  0.07245839  0.92903974    -0.05800
C377        C  0.85784936  0.04517654  0.93121043    -0.32700
C378        C  0.87031340  0.03067048  0.90230719     0.36300
H379        H  0.83291987  0.07864435  0.84291094     0.16700
O380        O  0.80627225  0.10941332  0.89317422    -0.60200
H381        H  0.86532177  0.03539828  0.95551140     0.16700
O382        O  0.89084865  0.00396590  0.90594357    -0.60300
H383        H  0.88302943  0.97598806  0.90463111     0.43700
H384        H  0.81361709  0.13734454  0.88916378     0.43700
C385        C  0.18766187  0.06145394  0.38699573    -0.05400
C386        C  0.17546409  0.05763303  0.41856518    -0.32800
C387        C  0.18653163  0.07514317  0.44739918     0.36400
C388        C  0.21028811  0.09708412  0.44505128    -0.05800
C389        C  0.22224772  0.10168490  0.41339711    -0.32700
C390        C  0.21117645  0.08392283  0.38450607     0.36300
H391        H  0.15730362  0.04071083  0.42100769     0.16700
O392        O  0.17380667  0.07080577  0.47770550    -0.60200
H393        H  0.24044341  0.11854341  0.41111239     0.16700
O394        O  0.22330966  0.08934145  0.35395732    -0.60300
H395        H  0.21525847  0.11441134  0.34406786     0.43700
H396        H  0.16269770  0.09569791  0.47972635     0.43700
C397        C  0.18728436  0.91894673  0.13038288    -0.05400
C398        C  0.21010578  0.89519351  0.13407879    -0.32800
C399        C  0.22249121  0.87764790  0.10584116     0.36400
C400        C  0.21202612  0.88362407  0.07325704    -0.05800
C401        C  0.18922629  0.90720045  0.06981335    -0.32700
C402        C  0.17713660  0.92509484  0.09763305     0.36300
H403        H  0.21836603  0.89006324  0.15891198     0.16700
O404        O  0.24491114  0.85533958  0.11042383    -0.60200
H405        H  0.18060376  0.91228368  0.04519409     0.16700
O406        O  0.15573750  0.94946835  0.09207342    -0.60300
H407        H  0.16277013  0.97776193  0.08892190     0.43700
H408        H  0.25933584  0.87539160  0.10711740     0.43700
C409        C  0.85067255  0.03611755  0.11508180    -0.05400
C410        C  0.86198116  0.02376438  0.08460602    -0.32800
C411        C  0.85255934  0.03826901  0.05373636     0.36400
C412        C  0.83168600  0.06678857  0.05285711    -0.05800
C413        C  0.81989279  0.07825675  0.08359142    -0.32700
C414        C  0.82909451  0.06277994  0.11452788     0.36300
H415        H  0.87864108  0.00322025  0.08475415     0.16700
O416        O  0.86502057  0.02598468  0.02482486    -0.60200
H417        H  0.80381789  0.09988639  0.08377417     0.16700
O418        O  0.81812746  0.07623912  0.14409803    -0.60300
H419        H  0.80345531  0.05697653  0.14852896     0.43700
H420        H  0.85672863  0.99935533  0.01862118     0.43700
C421        C  0.71839182  0.56721356  0.55531427    -0.05400
C422        C  0.73056323  0.56809169  0.58704179    -0.32800
C423        C  0.71775897  0.55246285  0.61572227     0.36400
C424        C  0.69225903  0.53613399  0.61291374    -0.05800
C425        C  0.67999554  0.53629803  0.58127216    -0.32700
C426        C  0.69284160  0.55125312  0.55266536     0.36300
H427        H  0.75018440  0.58022812  0.58949253     0.16700
O428        O  0.73027394  0.55379106  0.64630959    -0.60200
H429        H  0.66042466  0.52411434  0.57843298     0.16700
O430        O  0.67984197  0.55148772  0.52233666    -0.60300
H431        H  0.67926143  0.52224819  0.51501301     0.43700
H432        H  0.72452168  0.57993892  0.65690659     0.43700
C433        C  0.73106014  0.55183068  0.43455230    -0.05400
C434        C  0.71132301  0.52157046  0.43682349    -0.32800
C435        C  0.70048146  0.50381170  0.40806767     0.36400
C436        C  0.70927066  0.51574772  0.37590862    -0.05800
C437        C  0.73043862  0.54323178  0.37330191    -0.32700
C438        C  0.74135936  0.56129899  0.40235266     0.36300
H439        H  0.70335628  0.51235326  0.46100475     0.16700
O440        O  0.68076806  0.47543494  0.41175069    -0.60200
H441        H  0.73772974  0.55217982  0.34866014     0.16700
O442        O  0.76144182  0.58894797  0.39875452    -0.60300
H443        H  0.77754670  0.57250928  0.40197166     0.43700
H444        H  0.68955948  0.44821187  0.41215194     0.43700
C445        C  0.85116559  0.85330992  0.55995782    -0.05400
C446        C  0.83763167  0.85166979  0.59080345    -0.32800
C447        C  0.84810781  0.86995646  0.62008670     0.36400
C448        C  0.87261219  0.89008320  0.61888884    -0.05800
C449        C  0.88633810  0.89043597  0.58820506    -0.32700
C450        C  0.87594605  0.87236277  0.55913873     0.36300
H451        H  0.81862826  0.83703861  0.59205106     0.16700
O452        O  0.83421220  0.86779702  0.64962067    -0.60200
H453        H  0.90515222  0.90552276  0.58637604     0.16700
O454        O  0.89031923  0.87363358  0.52992090    -0.60300
H455        H  0.90018775  0.84735531  0.52959168     0.43700
H456        H  0.84056806  0.84255868  0.66116526     0.43700
C457        C  0.84129434  0.86544797  0.43707136    -0.05400
C458        C  0.83345231  0.84960251  0.40550899    -0.32800
C459        C  0.84150236  0.86838867  0.37514854     0.36400
C460        C  0.85812227  0.90305765  0.37594426    -0.05800
C461        C  0.86513310  0.91974346  0.40726431    -0.32700
C462        C  0.85665602  0.90188882  0.43746560     0.36300
H463        H  0.82152386  0.82201868  0.40421878     0.16700
O464        O  0.83442544  0.85099253  0.34494849    -0.60200
H465        H  0.87745431  0.94693004  0.40842171     0.16700
O466        O  0.86425024  0.92005055  0.46716218    -0.60300
H467        H  0.85031841  0.94019813  0.47247943     0.43700
H468        H  0.81653690  0.86121741  0.34047649     0.43700
C469        C  0.79946034  0.74786628  0.49756724    -0.05400
C470        C  0.79511480  0.72750346  0.46665322    -0.32800
C471        C  0.78177478  0.68958958  0.46520812     0.36400
C472        C  0.77212869  0.67097947  0.49507385    -0.05800
C473        C  0.77625508  0.69167071  0.52589220    -0.32700
C474        C  0.78952807  0.72950655  0.52732311     0.36300
H475        H  0.80235574  0.74071095  0.44329686     0.16700
O476        O  0.77803916  0.67154096  0.43427744    -0.60200
H477        H  0.76905997  0.67865245  0.54933635     0.16700
O478        O  0.79253865  0.74813550  0.55816325    -0.60300
H479        H  0.77715994  0.76639338  0.56060204     0.43700
H480        H  0.79410830  0.65537780  0.43005003     0.43700
loop_ 
_geom_bond_atom_site_label_1 
_geom_bond_atom_site_label_2 
_geom_bond_distance 
_geom_bond_site_symmetry_2 
_ccdc_geom_bond_type 
C1            N2   1.362       .  A
C1            N6   1.355       .  A
C1          C457   1.496       .  S
N2            C3   1.366       .  A
C3            N4   1.367       .  A
C3          C469   1.498       .  S
N4            C5   1.360       .  A
C5            N6   1.353       .  A
C5          C445   1.487       .  S
C7            N8   1.352       .  A
C7           N12   1.364       .  A
C7          C433   1.491       .  S
N8            C9   1.348       .  A
C9           N10   1.358       .  A
C9          C421   1.478       .  S
N10          C11   1.366       .  A
C11          N12   1.369       .  A
C11         C472   1.500       .  S
N13          C17   1.350       .  A
N13          N14   1.323       .  A
N13         Cu21   2.087       .  S
N14          C15   1.342       .  A
N14         Cu20   2.076       .  S
C15          C16   1.383       .  A
C15          H18   1.082       .  S
C16         C460   1.483       .  S
C16          C17   1.388       .  A
C17          H19   1.082       .  S
Cu20         N23   2.074       .  S
Cu21         N31   2.087       .  S
Cu22         N24   2.059       .  S
Cu22         N30   2.060       .  S
N23          C27   1.345       .  A
N23          N24   1.320   1_565  A
N24          C25   1.345       .  A
C25          C26   1.381   1_655  A
C25          H28   1.082       .  S
C26          C50   1.467       .  S
C26          C27   1.384   1_445  A
C27          H29   1.082       .  S
N30          C34   1.339       .  A
N30          N31   1.323   1_545  A
N31          C32   1.350   1_565  A
C32          C33   1.386       .  A
C32          H35   1.082   1_545  S
C33         C409   1.472       .  S
C33          C34   1.378       .  A
C34          H36   1.082       .  S
N37          C41   1.346       .  A
N37          N38   1.322       .  A
N37         Cu45   2.080   1_545  S
N38          C39   1.341       .  A
N38         Cu44   2.060       .  S
C39          C40   1.381       .  A
C39          H42   1.082       .  S
C40         C385   1.478       .  S
C40          C41   1.387       .  A
C41          H43   1.081       .  S
Cu44         N47   2.060       .  S
Cu45         N55   2.080       .  S
Cu46         N48   2.072   1_565  S
Cu46         N54   2.073       .  S
N47          C51   1.343       .  A
N47          N48   1.320       .  A
N48          C49   1.346       .  A
C49          C50   1.384       .  A
C49          H52   1.082   1_545  S
C50          C51   1.381       .  A
C51          H53   1.082       .  S
N54          C58   1.340       .  A
N54          N55   1.322       .  A
N55          C56   1.348       .  A
C56          C57   1.389       .  A
C56          H59   1.082       .  S
C57         C397   1.488       .  S
C57          C58   1.387       .  A
C58          H60   1.080       .  S
N61          C65   1.349       .  A
N61          N62   1.323       .  A
N61         Cu69   2.085   1_545  S
N62          C63   1.341       .  A
N62         Cu68   2.070   1_545  S
C63          C64   1.382       .  A
C63          H66   1.082       .  S
C64         C373   1.480       .  S
C64          C65   1.386       .  A
C65          H67   1.082       .  S
Cu68         N71   2.069       .  S
Cu69         N79   2.086       .  S
Cu70         N72   2.083       .  S
Cu70         N78   2.084       .  S
N71          C75   1.346   1_655  A
N71          N72   1.321       .  A
N72          C73   1.346   1_655  A
C73          C74   1.385       .  A
C73          H76   1.082       .  S
C74          C98   1.473       .  S
C74          C75   1.383       .  A
C75          H77   1.082   1_565  S
N78          C82   1.344       .  A
N78          N79   1.323       .  A
N79          C80   1.349       .  A
C80          C81   1.390       .  A
C80          H83   1.081       .  S
C81         C448   1.492       .  S
C81          C82   1.388       .  A
C82          H84   1.082       .  S
N85          C89   1.347       .  A
N85          N86   1.322       .  A
N85         Cu93   2.065       .  S
N86          C87   1.339       .  A
N86         Cu92   2.075       .  S
C87          C88   1.384       .  A
C87          H90   1.082       .  S
C88         C361   1.480       .  S
C88          C89   1.385       .  A
C89          H91   1.082       .  S
Cu92         N95   2.074       .  S
Cu93        N103   2.065   1_565  S
Cu94         N96   2.072       .  S
Cu94        N102   2.073   1_565  S
N95          C99   1.347       .  A
N95          N96   1.320       .  A
N96          C97   1.345       .  A
C97          C98   1.383       .  A
C97         H100   1.082       .  S
C98          C99   1.385       .  A
C99         H101   1.082       .  S
N102        C106   1.340       .  A
N102        N103   1.323       .  A
N103        C104   1.347       .  A
C104        C105   1.381       .  A
C104        H107   1.082       .  S
C105        C349   1.471       .  S
C105        C106   1.381       .  A
C106        H108   1.082       .  S
C109        N110   1.361       .  A
C109        N114   1.352   1_556  A
C109        C325   1.492       .  S
N110        C111   1.365   1_556  A
C111        N112   1.363       .  A
C111        C337   1.491       .  S
N112        C113   1.356       .  A
C113        N114   1.353       .  A
C113        C313   1.486       .  S
C115        N116   1.358       .  A
C115        N120   1.351   1_556  A
C115        C364   1.486       .  S
N116        C117   1.364   1_556  A
C117        N118   1.366       .  A
C117        C340   1.493       .  S
N118        C119   1.359       .  A
C119        N120   1.352       .  A
C119        C400   1.485       .  S
N121        C125   1.345       .  A
N121        N122   1.323       .  A
N121       Cu129   2.072       .  S
N122        C123   1.343       .  A
N122       Cu128   2.078       .  S
C123        C124   1.386       .  A
C123        H126   1.082       .  S
C124        C424   1.482       .  S
C124        C125   1.385       .  A
C125        H127   1.081       .  S
Cu128       N131   2.077       .  S
Cu129       N139   2.071       .  S
Cu130       N132   2.063       .  S
Cu130       N138   2.064       .  S
N131        C135   1.346       .  A
N131        N132   1.321       .  A
N132        C133   1.344       .  A
C133        C134   1.381       .  A
C133        H136   1.082       .  S
C134        C158   1.470       .  S
C134        C135   1.385       .  A
C135        H137   1.082       .  S
N138        C142   1.340       .  A
N138        N139   1.321       .  A
N139        C140   1.347       .  A
C140        C141   1.385       .  A
C140        H143   1.082       .  S
C141        C301   1.478       .  S
C141        C142   1.383       .  A
C142        H144   1.082       .  S
N145        C149   1.348       .  A
N145        N146   1.323       .  A
N145       Cu153   2.079       .  S
N146        C147   1.342       .  A
N146       Cu152   2.070       .  S
C147        C148   1.379       .  A
C147        H150   1.082       .  S
C148        C289   1.472       .  S
C148        C149   1.384       .  A
C149        H151   1.082       .  S
Cu152       N155   2.070       .  S
Cu153       N163   2.079       .  S
Cu154       N156   2.069       .  S
Cu154       N162   2.070       .  S
N155        C159   1.345       .  A
N155        N156   1.321       .  A
N156        C157   1.345       .  A
C157        C158   1.383       .  A
C157        H160   1.082       .  S
C158        C159   1.383       .  A
C159        H161   1.082       .  S
N162        C166   1.341       .  A
N162        N163   1.323       .  A
N163        C164   1.348       .  A
C164        C165   1.386       .  A
C164        H167   1.082       .  S
C165        C328   1.480       .  S
C165        C166   1.383       .  A
C166        H168   1.082       .  S
C169        N170   1.357       .  A
C169        N174   1.350       .  A
C169        C388   1.476       .  S
N170        C171   1.361       .  A
C171        N172   1.365       .  A
C171        C277   1.486       .  S
N172        C173   1.360       .  A
C173        N174   1.354       .  A
C173        C352   1.488       .  S
C175        N176   1.356       .  A
C175        N180   1.359       .  A
C175        C265   1.482       .  S
N176        C177   1.355       .  A
C177        N178   1.358       .  A
C177        C292   1.488       .  S
N178        C179   1.361       .  A
C179        N180   1.363       .  A
C179        C280   1.492       .  S
C181        N182   1.356       .  A
C181        N186   1.358       .  A
C181        C376   1.488       .  S
N182        C183   1.355   1_556  A
C183        N184   1.359       .  A
C183        C412   1.489       .  S
N184        C185   1.362   1_554  A
C185        N186   1.363       .  A
C185        C253   1.491       .  S
C187        N188   1.359       .  A
C187        N192   1.355       .  A
C187        C304   1.489       .  S
N188        C189   1.363       .  A
C189        N190   1.362   1_556  A
C189        C256   1.490       .  S
N190        C191   1.357       .  A
C191        N192   1.354   1_554  A
C191        C241   1.488       .  S
N193        C197   1.346       .  A
N193        N194   1.322       .  A
N193       Cu201   2.076       .  S
N194        C195   1.342       .  A
N194       Cu200   2.068       .  S
C195        C196   1.383       .  A
C195        H198   1.081       .  S
C196        C268   1.480       .  S
C196        C197   1.386       .  A
C197        H199   1.082       .  S
Cu200       N203   2.067       .  S
Cu201       N211   2.075       .  S
Cu202       N204   2.061       .  S
Cu202       N210   2.062       .  S
N203        C207   1.344       .  A
N203        N204   1.320       .  A
N204        C205   1.344       .  A
C205        C206   1.382       .  A
C205        H208   1.082       .  S
C206        C230   1.467       .  S
C206        C207   1.383       .  A
C207        H209   1.082       .  S
N210        C214   1.339       .  A
N210        N211   1.322       .  A
N211        C212   1.348       .  A
C212        C213   1.385       .  A
C212        H215   1.082       .  S
C213        C316   1.475       .  S
C213        C214   1.381       .  A
C214        H216   1.082       .  S
N217        C221   1.348       .  A
N217        N218   1.322       .  A
N217       Cu225   2.072       .  S
N218        C219   1.341       .  A
N218       Cu224   2.071       .  S
C219        C220   1.383       .  A
C219        H222   1.082       .  S
C220        C436   1.477       .  S
C220        C221   1.384       .  A
C221        H223   1.082       .  S
Cu224       N227   2.070       .  S
Cu225       N235   2.072       .  S
Cu226       N228   2.065       .  S
Cu226       N234   2.066       .  S
N227        C231   1.344       .  A
N227        N228   1.321       .  A
N228        C229   1.344       .  A
C229        C230   1.382       .  A
C229        H232   1.082       .  S
C230        C231   1.382       .  A
C231        H233   1.082       .  S
N234        C238   1.342       .  A
N234        N235   1.322       .  A
N235        C236   1.346       .  A
C236        C237   1.383       .  A
C236        H239   1.082       .  S
C237        C244   1.473       .  S
C237        C238   1.381       .  A
C238        H240   1.082       .  S
C241        C242   1.409       .  A
C241        C246   1.415       .  A
C242        C243   1.394       .  A
C242        H247   1.083       .  S
C243        C244   1.404       .  A
C243        O248   1.372       .  S
C244        C245   1.402       .  A
C245        C246   1.403       .  A
C245        H249   1.084       .  S
C246        O250   1.371       .  S
O248        H252   0.992       .  S
O250        H251   0.992       .  S
C253        C254   1.407       .  A
C253        C258   1.414   1_556  A
C254        C255   1.399       .  A
C254        H259   1.083       .  S
C255        C256   1.412       .  A
C255        O260   1.371       .  S
C256        C257   1.407   1_556  A
C257        C258   1.400       .  A
C257        H261   1.083       .  S
C258        O262   1.372       .  S
O260        H264   0.991       .  S
O262        H263   0.992       .  S
C265        C266   1.405       .  A
C265        C270   1.410       .  A
C266        C267   1.397       .  A
C266        H271   1.084       .  S
C267        C268   1.408       .  A
C267        O272   1.372       .  S
C268        C269   1.405       .  A
C269        C270   1.404       .  A
C269        H273   1.083       .  S
C270        O274   1.371       .  S
O272        H276   0.992       .  S
O274        H275   0.992       .  S
C277        C278   1.404       .  A
C277        C282   1.411       .  A
C278        C279   1.400       .  A
C278        H283   1.084       .  S
C279        C280   1.415       .  A
C279        O284   1.372       .  S
C280        C281   1.407       .  A
C281        C282   1.401       .  A
C281        H285   1.083       .  S
C282        O286   1.372       .  S
O284        H288   0.992       .  S
O286        H287   0.992       .  S
C289        C290   1.399       .  A
C289        C294   1.405       .  A
C290        C291   1.398       .  A
C290        H295   1.084       .  S
C291        C292   1.415       .  A
C291        O296   1.372       .  S
C292        C293   1.409       .  A
C293        C294   1.401       .  A
C293        H297   1.083       .  S
C294        O298   1.371       .  S
O296        H300   0.992       .  S
O298        H299   0.991       .  S
C301        C302   1.404       .  A
C301        C306   1.407       .  A
C302        C303   1.404       .  A
C302        H307   1.083       .  S
C303        C304   1.414       .  A
C303        O308   1.370       .  S
C304        C305   1.408       .  A
C305        C306   1.393       .  A
C305        H309   1.083       .  S
C306        O310   1.372       .  S
O308        H312   0.992       .  S
O310        H311   0.992       .  S
C313        C314   1.406       .  A
C313        C318   1.414       .  A
C314        C315   1.389       .  A
C314        H319   1.081       .  S
C315        C316   1.406       .  A
C315        O320   1.372       .  S
C316        C317   1.404       .  A
C317        C318   1.405       .  A
C317        H321   1.083       .  S
C318        O322   1.371       .  S
O320        H324   0.992       .  S
O322        H323   0.992       .  S
C325        C326   1.408       .  A
C325        C330   1.418       .  A
C326        C327   1.405       .  A
C326        H331   1.083       .  S
C327        C328   1.410       .  A
C327        O332   1.371       .  S
C328        C329   1.398       .  A
C329        C330   1.394       .  A
C329        H333   1.084       .  S
C330        O334   1.371       .  S
O332        H336   0.992       .  S
O334        H335   0.992       .  S
C337        C338   1.407       .  A
C337        C342   1.412   1_554  A
C338        C339   1.399       .  A
C338        H343   1.083       .  S
C339        C340   1.413       .  A
C339        O344   1.371       .  S
C340        C341   1.409   1_554  A
C341        C342   1.401       .  A
C341        H345   1.083       .  S
C342        O346   1.371       .  S
O344        H348   0.992       .  S
O346        H347   0.992       .  S
C349        C350   1.404       .  A
C349        C354   1.402       .  A
C350        C351   1.405       .  A
C350        H355   1.083       .  S
C351        C352   1.414       .  A
C351        O356   1.371       .  S
C352        C353   1.409       .  A
C353        C354   1.390       .  A
C353        H357   1.083       .  S
C354        O358   1.372   1_545  S
O356        H360   0.992       .  S
O358        H359   0.992       .  S
C361        C362   1.399       .  A
C361        C366   1.411       .  A
C362        C363   1.390       .  A
C362        H367   1.083       .  S
C363        C364   1.415       .  A
C363        O368   1.371       .  S
C364        C365   1.408       .  A
C365        C366   1.405       .  A
C365        H369   1.083       .  S
C366        O370   1.371       .  S
O368        H372   0.992       .  S
O370        H371   0.992       .  S
C373        C374   1.404       .  A
C373        C378   1.407       .  A
C374        C375   1.406       .  A
C374        H379   1.083       .  S
C375        C376   1.414       .  A
C375        O380   1.371       .  S
C376        C377   1.406       .  A
C377        C378   1.394       .  A
C377        H381   1.082       .  S
C378        O382   1.372       .  S
O380        H384   0.992       .  S
O382        H383   0.992   1_545  S
C385        C386   1.402       .  A
C385        C390   1.410       .  A
C386        C387   1.395       .  A
C386        H391   1.084       .  S
C387        C388   1.412       .  A
C387        O392   1.372       .  S
C388        C389   1.402       .  A
C389        C390   1.401       .  A
C389        H393   1.084       .  S
C390        O394   1.371       .  S
O392        H396   0.992       .  S
O394        H395   0.992       .  S
C397        C398   1.409       .  A
C397        C402   1.410       .  A
C398        C399   1.407       .  A
C398        H403   1.083       .  S
C399        C400   1.410       .  A
C399        O404   1.371       .  S
C400        C401   1.404       .  A
C401        C402   1.392       .  A
C401        H405   1.082       .  S
C402        O406   1.371       .  S
O404        H408   0.992       .  S
O406        H407   0.992       .  S
C409        C410   1.398       .  A
C409        C414   1.405       .  A
C410        C411   1.395       .  A
C410        H415   1.084       .  S
C411        C412   1.416       .  A
C411        O416   1.371       .  S
C412        C413   1.410       .  A
C413        C414   1.404       .  A
C413        H417   1.083       .  S
C414        O418   1.371       .  S
O416        H420   0.992   1_545  S
O418        H419   0.992       .  S
C421        C422   1.402       .  A
C421        C426   1.411       .  A
C422        C423   1.404       .  A
C422        H427   1.083       .  S
C423        C424   1.413       .  A
C423        O428   1.371       .  S
C424        C425   1.401       .  A
C425        C426   1.395       .  A
C425        H429   1.083       .  S
C426        O430   1.373       .  S
O428        H432   0.992       .  S
O430        H431   0.992       .  S
C433        C434   1.410       .  A
C433        C438   1.412       .  A
C434        C435   1.391       .  A
C434        H439   1.082       .  S
C435        C436   1.404       .  A
C435        O440   1.372       .  S
C436        C437   1.406       .  A
C437        C438   1.407       .  A
C437        H441   1.083       .  S
C438        O442   1.370       .  S
O440        H444   0.992       .  S
O442        H443   0.992       .  S
C445        C446   1.405       .  A
C445        C450   1.411       .  A
C446        C447   1.408       .  A
C446        H451   1.083       .  S
C447        C448   1.415       .  A
C447        O452   1.371       .  S
C448        C449   1.404       .  A
C449        C450   1.397       .  A
C449        H453   1.083       .  S
C450        O454   1.372       .  S
O452        H456   0.992       .  S
O454        H455   0.992       .  S
C457        C458   1.410       .  A
C457        C462   1.418       .  A
C458        C459   1.407       .  A
C458        H463   1.083       .  S
C459        C460   1.409       .  A
C459        O464   1.371       .  S
C460        C461   1.400       .  A
C461        C462   1.396       .  A
C461        H465   1.084       .  S
C462        O466   1.371       .  S
O464        H468   0.992       .  S
O466        H467   0.992       .  S
C469        C470   1.409       .  A
C469        C474   1.413       .  A
C470        C471   1.406       .  A
C470        H475   1.083       .  S
C471        C472   1.415       .  A
C471        O476   1.371       .  S
C472        C473   1.409       .  A
C473        C474   1.402       .  A
C473        H477   1.083       .  S
C474        O478   1.371       .  S
O476        H480   0.992       .  S
O478        H479   0.992       .  S
