geometry optimzed in LAMMPS
_audit_creation_date              2020-11-30 
_audit_creation_method            'lammps2cif' 
_symmetry_space_group_name_H-M    'P1' 
_symmetry_Int_Tables_number       1 
_symmetry_cell_setting            triclinic 
loop_ 
_symmetry_equiv_pos_as_xyz 
  x,y,z 
_cell_length_a                    42.17291370381858 
_cell_length_b                    42.10856234655418 
_cell_length_c                    42.0841156182596 
_cell_angle_alpha                 89.9778687236291 
_cell_angle_beta                  90.00526543471959 
_cell_angle_gamma                 90.02892474693509 
loop_ 
_atom_site_label 
_atom_site_type_symbol 
_atom_site_fract_x 
_atom_site_fract_y 
_atom_site_fract_z 
_atom_site_charge 
N1          N  0.43275938  0.68047652  0.99802737    -0.26500
N2          N  0.45231088  0.65620670  0.99974887    -0.34360
C3          C  0.43603367  0.62916233  0.00079295     0.01840
C4          C  0.40411201  0.63611531  0.99961349     0.07870
C5          C  0.40262213  0.66916797  0.99788318    -0.05230
H6          H  0.44705938  0.60605759  0.00205769     0.08540
H7          H  0.38151073  0.68367593  0.99649663     0.09740
Cu8        Cu  0.50037710  0.65964632  0.99995527     0.44170
Cu9        Cu  0.45356921  0.72537520  0.99630797     0.41990
Cu10       Cu  0.54706213  0.72532809  0.00369839     0.43880
N11         N  0.54844278  0.65620979  0.00020564    -0.33880
N12         N  0.56796215  0.68051622  0.00197614    -0.28140
C13         C  0.59811394  0.66928495  0.00215557    -0.04240
C14         C  0.59667326  0.63623435  0.00039450     0.07980
C15         C  0.56475822  0.62920354  0.99916300     0.01770
H16         H  0.61920113  0.68384333  0.00358551     0.09420
H17         H  0.55376697  0.60607330  0.99786948     0.08500
N18         N  0.51597528  0.76401561  0.00196248    -0.35330
N19         N  0.48474061  0.76405651  0.99799947    -0.27510
C20         C  0.47471843  0.79428427  0.99637525    -0.02750
C21         C  0.50046769  0.81454477  0.99997253     0.05860
C22         C  0.52612139  0.79420354  0.00357955     0.03950
H23         H  0.45023152  0.80057689  0.99243943     0.09060
H24         H  0.55062983  0.80041036  0.00754621     0.07890
N25         N  0.66617024  0.58333456  0.00195727    -0.26500
N26         N  0.64207698  0.56358301  0.00008024    -0.34360
C27         C  0.61494097  0.57960925  0.99903295     0.01840
C28         C  0.62159587  0.61161302  0.00037335     0.07870
C29         C  0.65460546  0.61341431  0.00220743    -0.05230
H30         H  0.59197071  0.56833972  0.99765719     0.08540
H31         H  0.66889867  0.63468998  0.00373108     0.09740
Cu32       Cu  0.64579995  0.51559899  0.99972188     0.44170
Cu33       Cu  0.71113149  0.56257483  0.00364155     0.41990
Cu34       Cu  0.71087193  0.46870284  0.99661016     0.43880
N35         N  0.64189679  0.46761957  0.99966559    -0.33880
N36         N  0.66600953  0.44788531  0.99827874    -0.28140
C37         C  0.65450853  0.41778254  0.99841071    -0.04240
C38         C  0.62149811  0.41954202  0.99989151     0.07980
C39         C  0.61476965  0.45154708  0.00070075     0.01770
H40         H  0.66884588  0.39652436  0.99732133     0.09420
H41         H  0.59176900  0.46276182  0.00187070     0.08500
N42         N  0.74958620  0.49985178  0.99821554    -0.35330
N43         N  0.74973918  0.53120301  0.00185725    -0.27510
C44         C  0.77999596  0.54116408  0.00327822    -0.02750
C45         C  0.80003194  0.51525173  0.99999754     0.05860
C46         C  0.77970656  0.48957655  0.99673076     0.03950
H47         H  0.78661597  0.56567682  0.00689557     0.09060
H48         H  0.78602353  0.46499310  0.99310401     0.07890
N49         N  0.56810208  0.35044858  0.00163156    -0.26500
N50         N  0.54851090  0.37470141  0.00022850    -0.34360
C51         C  0.56473425  0.40177493  0.99921512     0.01840
C52         C  0.59666210  0.39484206  0.00002767     0.07870
C53         C  0.59822215  0.36178518  0.00150207    -0.05230
H54         H  0.55368223  0.42487630  0.99804235     0.08540
H55         H  0.61936425  0.34729767  0.00260232     0.09740
Cu56       Cu  0.50049919  0.37111717  0.00007340     0.44170
Cu57       Cu  0.54731872  0.30556577  0.00340298     0.41990
Cu58       Cu  0.45375451  0.30543310  0.99660349     0.43880
N59         N  0.45248213  0.37457312  0.99989349    -0.33880
N60         N  0.43291819  0.35028240  0.99842484    -0.28140
C61         C  0.40278623  0.36156398  0.99851907    -0.04240
C62         C  0.40431136  0.39462371  0.00004375     0.07980
C63         C  0.43623176  0.40161244  0.00091923     0.01770
H64         H  0.38165917  0.34703909  0.99735646     0.09420
H65         H  0.44726356  0.42473146  0.00212532     0.08500
N66         N  0.48494851  0.26680400  0.99808752    -0.35330
N67         N  0.51621018  0.26685699  0.00187796    -0.27510
C68         C  0.52634446  0.23666840  0.00344913    -0.02750
C69         C  0.50064989  0.21635069  0.99998896     0.05860
C70         C  0.47489650  0.23657564  0.99652232     0.03950
H71         H  0.55086411  0.23040875  0.00728302     0.09060
H72         H  0.45039081  0.23022482  0.99271484     0.07890
N73         N  0.33470641  0.58303804  0.99820680    -0.26500
N74         N  0.35882875  0.56333480  0.99996193    -0.34360
C75         C  0.38594519  0.57942853  0.00092335     0.01840
C76         C  0.37923578  0.61142283  0.99965523     0.07870
C77         C  0.34622129  0.61314605  0.99794967    -0.05230
H78         H  0.40893651  0.56821449  0.00220481     0.08540
H79         H  0.33188867  0.63438852  0.99651897     0.09740
Cu80       Cu  0.35513322  0.51532826  0.00031537     0.44170
Cu81       Cu  0.28978323  0.56220029  0.99666901     0.41990
Cu82       Cu  0.29000678  0.46826396  0.00286950     0.43880
N83         N  0.35902717  0.46733737  0.00035681    -0.33880
N84         N  0.33491549  0.44755799  0.00150879    -0.28140
C85         C  0.34643705  0.41747316  0.00138801    -0.04240
C86         C  0.37945696  0.41928686  0.00015357     0.07980
C87         C  0.38616974  0.45130753  0.99948385     0.01770
H88         H  0.33210353  0.39618832  0.00229112     0.09420
H89         H  0.40916989  0.46256329  0.99849353     0.08500
N90         N  0.25129408  0.49939307  0.00139985    -0.35330
N91         N  0.25118209  0.53081221  0.99827350    -0.27510
C92         C  0.22094376  0.54082757  0.99710296    -0.02750
C93         C  0.20092368  0.51487026  0.99992471     0.05860
C94         C  0.22115011  0.48910703  0.00268203     0.03950
H95         H  0.21426729  0.56540014  0.99398082     0.09060
H96         H  0.21468554  0.46447628  0.00584241     0.07890
N97         N  0.00087289  0.58333081  0.66562674    -0.26500
N98         N  0.00046809  0.56376116  0.64125907    -0.34360
C99         C  0.00018445  0.58010134  0.61417793     0.01840
C100        C  0.00043697  0.61210726  0.62113850     0.07870
C101        C  0.00087969  0.61354349  0.65429523    -0.05230
H102        H  0.99989448  0.56906174  0.59101701     0.08540
H103        H  0.00118168  0.63469302  0.66886280     0.09740
Cu104      Cu  0.00045954  0.51552684  0.64459318     0.44170
Cu105      Cu  0.00129241  0.56240557  0.71076754     0.41990
Cu106      Cu  0.99945280  0.46854843  0.71054798     0.43880
N107        N  0.00039993  0.46730457  0.64110631    -0.33880
N108        N  0.99994535  0.44770177  0.66545652    -0.28140
C109        C  0.99987415  0.41750594  0.65413455    -0.04240
C110        C  0.00029802  0.41898124  0.62099124     0.07980
C111        C  0.00063420  0.45099211  0.61401921     0.01770
H112        H  0.99947534  0.39634571  0.66870068     0.09420
H113        H  0.00094777  0.46204401  0.59085654     0.08500
N114        N  0.99974340  0.49955528  0.74959781    -0.35330
N115        N  0.00092265  0.53114224  0.74971648    -0.27510
C116        C  0.00145384  0.54121395  0.78006454    -0.02750
C117        C  0.00033749  0.51509962  0.79996349     0.05860
C118        C  0.99922042  0.48919357  0.77984316     0.03950
H119        H  0.00211611  0.56590922  0.78709012     0.09060
H120        H  0.99861459  0.46442846  0.78664418     0.07890
N121        N  0.00122018  0.68172993  0.56782786    -0.26500
N122        N  0.00015467  0.65749497  0.54813233    -0.34360
C123        C  0.99957996  0.63033330  0.56430188     0.01840
C124        C  0.00033647  0.63707395  0.59635057     0.07870
C125        C  0.00134790  0.67020489  0.59798930    -0.05230
H126        H  0.99881087  0.60726876  0.55310959     0.08540
H127        H  0.00225041  0.68461535  0.61923805     0.09740
Cu128      Cu  0.99996074  0.66109587  0.49996459     0.44170
Cu129      Cu  0.00239772  0.72692442  0.54694330     0.41990
Cu130      Cu  0.99850379  0.72681994  0.45295964     0.43880
N131        N  0.99994353  0.65741642  0.45180346    -0.33880
N132        N  0.99928207  0.68165874  0.43208652    -0.28140
C133        C  0.99932210  0.67015203  0.40193049    -0.04240
C134        C  0.00004569  0.63701780  0.40359138     0.07980
C135        C  0.00043235  0.63025509  0.43565050     0.01770
H136        H  0.99882457  0.68458073  0.38067018     0.09420
H137        H  0.00093727  0.60718286  0.44685495     0.08500
N138        N  0.99930188  0.76587616  0.48410417    -0.35330
N139        N  0.00176922  0.76593863  0.51566455    -0.27510
C140        C  0.00286975  0.79627094  0.52576620    -0.02750
C141        C  0.00053086  0.81607656  0.49974490     0.05860
C142        C  0.99820059  0.79615228  0.47384201     0.03950
H143        H  0.00471032  0.80338514  0.55039551     0.09060
H144        H  0.99629851  0.80314831  0.44917923     0.07890
N145        N  0.99959051  0.58334009  0.33431180    -0.26500
N146        N  0.00043427  0.56375485  0.35867173    -0.34360
C147        C  0.00083323  0.58007375  0.38575186     0.01840
C148        C  0.00018644  0.61207861  0.37879984     0.07870
C149        C  0.99941659  0.61354088  0.34564943    -0.05230
H150        H  0.00142205  0.56901928  0.40890671     0.08540
H151        H  0.99869248  0.63469847  0.33109223     0.09740
Cu152      Cu  0.00064369  0.51552108  0.35536050     0.44170
Cu153      Cu  0.99880768  0.56246528  0.28916517     0.41990
Cu154      Cu  0.00198489  0.46864495  0.28942576     0.43880
N155        N  0.00066882  0.46729202  0.35885555    -0.33880
N156        N  0.00127677  0.44771883  0.33450140    -0.28140
C157        C  0.00124658  0.41750764  0.34581175    -0.04240
C158        C  0.00058052  0.41893828  0.37895415     0.07980
C159        C  0.00022081  0.45094547  0.38593342     0.01770
H160        H  0.00170619  0.39636585  0.33123842     0.09420
H161        H  0.99975222  0.46197281  0.40909779     0.08500
N162        N  0.00141787  0.49966961  0.25036317    -0.35330
N163        N  0.99949042  0.53122422  0.25022261    -0.27510
C164        C  0.99869391  0.54128274  0.21986331    -0.02750
C165        C  0.00053320  0.51520457  0.20002378     0.05860
C166        C  0.00230234  0.48933107  0.22012399     0.03950
H167        H  0.99739290  0.56594040  0.21277060     0.09060
H168        H  0.00359127  0.46460562  0.21329224     0.07890
N169        N  0.00102567  0.34922794  0.43212862    -0.26500
N170        N  0.00023394  0.37344104  0.45185947    -0.34360
C171        C  0.99985462  0.40063558  0.43574727     0.01840
C172        C  0.00044876  0.39394075  0.40369462     0.07870
C173        C  0.00117370  0.36080530  0.40198922    -0.05230
H174        H  0.99931447  0.42368661  0.44698109     0.08540
H175        H  0.00186575  0.34642747  0.38071148     0.09740
Cu176      Cu  0.00007266  0.36976638  0.49998183     0.44170
Cu177      Cu  0.00188716  0.30400324  0.45297659     0.41990
Cu178      Cu  0.99958555  0.30413171  0.54703725     0.43880
N179        N  0.00010510  0.37353474  0.54809595    -0.33880
N180        N  0.99986244  0.34931918  0.56785237    -0.28140
C181        C  0.99991296  0.36087965  0.59798349    -0.04240
C182        C  0.00020613  0.39401566  0.59624996     0.07980
C183        C  0.00032538  0.40073133  0.56418810     0.01770
H184        H  0.99974819  0.34648691  0.61927332     0.09420
H185        H  0.00051768  0.42378961  0.55294191     0.08500
N186        N  0.00022167  0.26506598  0.51590591    -0.35330
N187        N  0.00170321  0.26499079  0.48427961    -0.27510
C188        C  0.00244533  0.23465017  0.47416272    -0.02750
C189        C  0.00109485  0.21488499  0.50026856     0.05860
C190        C  0.99962599  0.23479281  0.52622472     0.03950
H191        H  0.00350798  0.22751164  0.44949630     0.09060
H192        H  0.99843207  0.22779839  0.55093187     0.07890
N193        N  0.43355468  0.01410940  0.66514708    -0.26500
N194        N  0.45308127  0.01543400  0.64080481    -0.34360
C195        C  0.43675226  0.01637493  0.61376428     0.01840
C196        C  0.40481883  0.01558546  0.62078144     0.07870
C197        C  0.40339016  0.01419745  0.65388474    -0.05230
H198        H  0.44773782  0.01749098  0.59060678     0.08540
H199        H  0.38229160  0.01315553  0.66845858     0.09740
Cu200      Cu  0.50119837  0.01562889  0.64422225     0.44170
Cu201      Cu  0.45444298  0.01254532  0.71010209     0.41990
Cu202      Cu  0.54797711  0.01886351  0.71016252     0.43880
N203        N  0.54931638  0.01595049  0.64084999    -0.33880
N204        N  0.56884119  0.01737518  0.66519257    -0.28140
C205        C  0.59900265  0.01742517  0.65392722    -0.04240
C206        C  0.59757329  0.01601382  0.62082550     0.07980
C207        C  0.56564409  0.01507282  0.61381111     0.01770
H208        H  0.62010129  0.01857098  0.66849923     0.09420
H209        H  0.55465656  0.01392303  0.59065365     0.08500
N210        N  0.51686432  0.01728140  0.74897936    -0.35330
N211        N  0.48552493  0.01395924  0.74894644    -0.27510
C212        C  0.47537353  0.01257338  0.77918622    -0.02750
C213        C  0.50114667  0.01553752  0.79942705     0.05860
C214        C  0.52696172  0.01856095  0.77924641     0.03950
H215        H  0.45081231  0.00921266  0.78566881     0.09060
H216        H  0.55151019  0.02190753  0.78579239     0.07890
N217        N  0.66712049  0.01504587  0.56779685    -0.26500
N218        N  0.64297688  0.01588059  0.54802652    -0.34360
C219        C  0.61582161  0.01648059  0.56408826     0.01840
C220        C  0.62250539  0.01600831  0.59613774     0.07870
C221        C  0.65556464  0.01514602  0.59791416    -0.05230
H222        H  0.59281211  0.01717172  0.55282546     0.08090
H223        H  0.66990392  0.01445636  0.61921378     0.09740
Cu224      Cu  0.64674691  0.01593545  0.49996070     0.44170
Cu225      Cu  0.71216469  0.01379299  0.54701029     0.41990
Cu226      Cu  0.71214693  0.01776198  0.45293005     0.43880
N227        N  0.64295539  0.01601445  0.45189582    -0.33880
N228        N  0.66710014  0.01677791  0.43212899    -0.28140
C229        C  0.65554326  0.01671066  0.40201012    -0.04240
C230        C  0.62248127  0.01591056  0.40378104     0.07980
C231        C  0.61579659  0.01546983  0.43583088     0.01770
H232        H  0.66988522  0.01730974  0.38071352     0.09420
H233        H  0.59278910  0.01485132  0.44709260     0.08500
N234        N  0.75098035  0.01685372  0.48418524    -0.35330
N235        N  0.75098465  0.01426443  0.51573094    -0.27510
C236        C  0.78122186  0.01296833  0.52589580    -0.02750
C237        C  0.80104499  0.01532904  0.49993322     0.05860
C238        C  0.78121553  0.01787664  0.47399212     0.03950
H239        H  0.78825891  0.01103825  0.55054135     0.09060
H240        H  0.78824216  0.01982593  0.44934647     0.07890
N241        N  0.43350557  0.01604705  0.33467839    -0.26500
N242        N  0.45306338  0.01586226  0.35903401    -0.34360
C243        C  0.43675969  0.01557515  0.38610222     0.01840
C244        C  0.40481400  0.01557236  0.37908468     0.07870
C245        C  0.40335210  0.01585139  0.34595774    -0.05230
H246        H  0.44777291  0.01532723  0.40927429     0.08540
H247        H  0.38223389  0.01595722  0.33137020     0.09740
Cu248      Cu  0.50118691  0.01591624  0.35559163     0.44170
Cu249      Cu  0.45431454  0.01644740  0.28968002     0.41990
Cu250      Cu  0.54807515  0.01480554  0.28963991     0.43880
N251        N  0.54931132  0.01580028  0.35900891    -0.33880
N252        N  0.56887039  0.01533966  0.33466038    -0.28140
C253        C  0.59902238  0.01537195  0.34595526    -0.04240
C254        C  0.59755495  0.01584647  0.37908129     0.07980
C255        C  0.56561035  0.01611732  0.38608224     0.01770
H256        H  0.62014222  0.01501822  0.33138038     0.09420
H257        H  0.55459330  0.01652482  0.40924523     0.08500
N258        N  0.51693637  0.01522302  0.25081657    -0.35330
N259        N  0.48540539  0.01599953  0.25084167    -0.27510
C260        C  0.47516291  0.01626548  0.22058950    -0.02750
C261        C  0.50111518  0.01557550  0.20051191     0.05860
C262        C  0.52711507  0.01491869  0.22054166     0.03950
H263        H  0.45044449  0.01735024  0.21382870     0.09060
H264        H  0.55181810  0.01382492  0.21373281     0.07890
N265        N  0.33528235  0.01707534  0.56772744    -0.26500
N266        N  0.35941885  0.01582516  0.54797808    -0.34360
C267        C  0.38656188  0.01494557  0.56405181     0.01840
C268        C  0.37988168  0.01569507  0.59609322     0.07870
C269        C  0.34683323  0.01699607  0.59785086    -0.05230
H270        H  0.40956068  0.01388875  0.55280351     0.08540
H271        H  0.33250192  0.01797644  0.61913908     0.09740
Cu272      Cu  0.35564239  0.01564513  0.49992684     0.44170
Cu273      Cu  0.29025796  0.01853218  0.54687008     0.41990
Cu274      Cu  0.29025050  0.01238718  0.45295784     0.43880
N275        N  0.35940811  0.01538970  0.45187660    -0.33880
N276        N  0.33527972  0.01394473  0.43212375    -0.28140
C277        C  0.34683735  0.01394444  0.40200586    -0.04240
C278        C  0.37987933  0.01542803  0.40376974     0.07980
C279        C  0.38655012  0.01634051  0.43580962     0.01770
H280        H  0.33251310  0.01281479  0.38071504     0.09420
H281        H  0.40954348  0.01750678  0.44706652     0.08500
N282        N  0.25141205  0.01381228  0.48420438    -0.35330
N283        N  0.25141733  0.01708876  0.51561847    -0.27510
C284        C  0.22120360  0.01841234  0.52575267    -0.02750
C285        C  0.20096148  0.01543825  0.49991453     0.05860
C286        C  0.22119376  0.01247606  0.47407312     0.03950
H287        H  0.21475504  0.02175210  0.55036048     0.09060
H288        H  0.21473489  0.00913901  0.44946477     0.07890
O289        O  0.99859708  0.96807639  0.47328985    -0.72150
O290        O  0.00139080  0.06354750  0.47402169    -0.73130
O291        O  0.04763805  0.01473816  0.47369860    -0.61750
O292        O  0.95245979  0.01731396  0.47366737    -0.70160
O293        O  0.95250763  0.01373239  0.52634352    -0.69720
O294        O  0.04770733  0.01633700  0.52628701    -0.60970
O295        O  0.99883514  0.06299786  0.52675562    -0.73480
O296        O  0.00152727  0.96755129  0.52599737    -0.72260
Cu297      Cu  0.00001994  0.01591195  0.47181600     1.04560
Cu298      Cu  0.00012824  0.01516676  0.52819904     1.04330
C299        C  0.00009192  0.95283857  0.49951439     0.94050
C300        C  0.00017121  0.07823428  0.50052773     0.93180
C301        C  0.06283096  0.01552562  0.49997800     0.85330
C302        C  0.93753659  0.01549925  0.50001090     0.91600
O303        O  0.47466275  0.06295656  0.00054170    -0.72150
O304        O  0.47464020  0.96796868  0.00007720    -0.73130
O305        O  0.47461834  0.01508236  0.04793481    -0.61750
O306        O  0.47469597  0.01570574  0.95269014    -0.70160
O307        O  0.52718459  0.01527147  0.95273307    -0.69720
O308        O  0.52718817  0.01589071  0.04792099    -0.60970
O309        O  0.52710511  0.96797082  0.00058083    -0.73480
O310        O  0.52713078  0.06304999  0.00006412    -0.72260
Cu311      Cu  0.47283340  0.01543522  0.00031237     1.04560
Cu312      Cu  0.52897674  0.01553812  0.00032873     1.04330
C313        C  0.50087770  0.07816617  0.00028628     0.94050
C314        C  0.50085656  0.95280402  0.00031546     0.93180
C315        C  0.50091118  0.01549535  0.06301161     0.85330
C316        C  0.50095443  0.01548591  0.93754644     0.91600
O317        O  0.00162420  0.48796138  0.04783742    -0.72150
O318        O  0.99953879  0.48795777  0.95238339    -0.73130
O319        O  0.04809898  0.48796958  0.99924945    -0.61750
O320        O  0.95300542  0.48807840  0.00094180    -0.70160
O321        O  0.95315663  0.54061481  0.99913163    -0.69720
O322        O  0.04807894  0.54052680  0.00105754    -0.60970
O323        O  0.00173904  0.54060768  0.95241963    -0.73480
O324        O  0.99943863  0.54063157  0.04775434    -0.72260
Cu325      Cu  0.00056189  0.48614092  0.00010629     1.04560
Cu326      Cu  0.00061037  0.54241573  0.00008978     1.04330
C327        C  0.00050502  0.51431819  0.06283027     0.94050
C328        C  0.00065415  0.51430177  0.93733970     0.93180
C329        C  0.06321426  0.51426562  0.00016939     0.85330
C330        C  0.93793558  0.51439055  0.00000722     0.91600
C331        C  0.11516840  0.00812179  0.52775000     0.24390
C332        C  0.09809957  0.01548891  0.49995255    -0.23720
C333        C  0.11515230  0.02281432  0.47213578     0.19300
C334        C  0.14833089  0.02308319  0.47217808     0.24330
C335        C  0.16552402  0.01543834  0.49992089    -0.23660
C336        C  0.14834468  0.00780167  0.52767506     0.19230
F337        F  0.16338165  0.99907284  0.55479106    -0.13620
F338        F  0.09983708  0.00049088  0.55508401    -0.15980
F339        F  0.16335830  0.03177185  0.44504253    -0.15990
F340        F  0.09980385  0.03045426  0.44481627    -0.13620
C341        C  0.52570412  0.03035302  0.14824039     0.24390
C342        C  0.50106414  0.01554794  0.16529157    -0.23720
C343        C  0.47636618  0.00072730  0.14833865     0.19300
C344        C  0.47623644  0.00085669  0.11512258     0.24330
C345        C  0.50094761  0.01552357  0.09813136    -0.23660
C346        C  0.52571803  0.03020153  0.11502632     0.19230
F347        F  0.54955324  0.04528102  0.09941490    -0.13620
F348        F  0.54934371  0.04593709  0.16360843    -0.15980
F349        F  0.45235678  0.98575956  0.09960453    -0.15990
F350        F  0.45278351  0.98514729  0.16380539    -0.13620
C351        C  0.85276165  0.99001971  0.51368600     0.24390
C352        C  0.83596821  0.01533965  0.49992997    -0.23720
C353        C  0.85273765  0.04068651  0.48617212     0.19300
C354        C  0.88591759  0.04072814  0.48619658     0.24330
C355        C  0.90268842  0.01544371  0.50000316    -0.23660
C356        C  0.88594808  0.99007157  0.51371612     0.19230
F357        F  0.90177755  0.96493780  0.52624863    -0.13620
F358        F  0.83699817  0.96482700  0.52620126    -0.15980
F359        F  0.90170976  0.06584880  0.47356745    -0.15990
F360        F  0.83695302  0.06581748  0.47358841    -0.13620
C361        C  0.52856444  0.00735097  0.88524771     0.24390
C362        C  0.50099875  0.01548237  0.90226954    -0.23720
C363        C  0.47348473  0.02362454  0.88516671     0.19300
C364        C  0.47360320  0.02391798  0.85195312     0.24330
C365        C  0.50109855  0.01551338  0.83483737    -0.23660
C366        C  0.52854401  0.00709089  0.85203261     0.19230
F367        F  0.55534862  0.99763971  0.83695000    -0.13620
F368        F  0.55558323  0.99893302  0.90065143    -0.15980
F369        F  0.44684421  0.03339568  0.83679552    -0.15990
F370        F  0.44642447  0.03203105  0.90049051    -0.13620
C371        C  0.02878573  0.12969109  0.49518728     0.24390
C372        C  0.00043454  0.11311988  0.50078140    -0.23720
C373        C  0.97230842  0.13008278  0.50621212     0.19300
C374        C  0.97253279  0.16334409  0.50603784     0.24330
C375        C  0.00087906  0.17993134  0.50041765    -0.23660
C376        C  0.02901106  0.16295057  0.49501536     0.19230
F377        F  0.05671514  0.17862027  0.49004482    -0.13620
F378        F  0.05626066  0.11360904  0.49031820    -0.15980
F379        F  0.94503718  0.17940591  0.51081039    -0.15990
F380        F  0.94460059  0.11439640  0.51112085    -0.13620
C381        C  0.97952328  0.53452482  0.14783827     0.24390
C382        C  0.00053078  0.51497238  0.16489170    -0.23720
C383        C  0.02147264  0.49511532  0.14811294     0.19300
C384        C  0.02137706  0.49480170  0.11485996     0.24330
C385        C  0.00043726  0.51441982  0.09786088    -0.23660
C386        C  0.97952062  0.53428252  0.11458981     0.19230
F387        F  0.95836901  0.55270748  0.09871303    -0.13620
F388        F  0.95825408  0.55308928  0.16335560    -0.15980
F389        F  0.04248730  0.47612665  0.09924107    -0.15990
F390        F  0.04278106  0.47680014  0.16389091    -0.13620
C391        C  0.97351934  0.90102118  0.48885048     0.24390
C392        C  0.00026164  0.91792464  0.49929573    -0.23720
C393        C  0.02707814  0.90125920  0.50991904     0.19300
C394        C  0.02716320  0.86800502  0.51008975     0.24330
C395        C  0.00043192  0.85107053  0.49961917    -0.23660
C396        C  0.97361418  0.86775936  0.48898350     0.19230
F397        F  0.94725179  0.85180673  0.47957582    -0.13620
F398        F  0.94706090  0.91676440  0.47937681    -0.15980
F399        F  0.05358764  0.85230117  0.51970933    -0.15990
F400        F  0.05339274  0.91724275  0.51943186    -0.13620
C401        C  0.98165454  0.49284747  0.88527447     0.24390
C402        C  0.00066648  0.51439038  0.90225419    -0.23720
C403        C  0.01959164  0.53614175  0.88542566     0.19300
C404        C  0.01953886  0.53633750  0.85217886     0.24330
C405        C  0.00042905  0.51487507  0.83514607    -0.23660
C406        C  0.98146362  0.49314009  0.85202369     0.19230
F407        F  0.96189226  0.47286772  0.83637685    -0.13620
F408        F  0.96242916  0.47219799  0.90089053    -0.15980
F409        F  0.03899945  0.55683198  0.83667328    -0.15990
F410        F  0.03892965  0.55656877  0.90118159    -0.13620
C411        C  0.14865474  0.48748171  0.99042381     0.24390
C412        C  0.16564161  0.51468501  0.00001113    -0.23720
C413        C  0.14847651  0.54170455  0.00970836     0.19300
C414        C  0.11533811  0.54161534  0.00956469     0.24330
C415        C  0.09840464  0.51435421  0.00018471    -0.23660
C416        C  0.11550833  0.48724235  0.99075017     0.19230
F417        F  0.10024765  0.46053442  0.98108041    -0.13620
F418        F  0.16391055  0.46121593  0.97973572    -0.15980
F419        F  0.09991788  0.56818052  0.01932726    -0.15990
F420        F  0.16355836  0.56812236  0.02030730    -0.13620
C421        C  0.52906726  0.13054808  0.99522168     0.24390
C422        C  0.50082555  0.11342969  0.00022478    -0.23720
C423        C  0.47252263  0.13044375  0.00513013     0.19300
C424        C  0.47250370  0.16361662  0.00539715     0.24330
C425        C  0.50070464  0.18088893  0.00004288    -0.23660
C426        C  0.52896547  0.16372009  0.99476594     0.19230
F427        F  0.55670032  0.17867702  0.98830674    -0.13620
F428        F  0.55699953  0.11531063  0.99022787    -0.15980
F429        F  0.44470847  0.17847543  0.01174253    -0.15990
F430        F  0.44464241  0.11510444  0.01020019    -0.13620
C431        C  0.85233002  0.48716659  0.00768491     0.24390
C432        C  0.83538313  0.51500814  0.99998984    -0.23720
C433        C  0.85270148  0.54260525  0.99225740     0.19300
C434        C  0.88584070  0.54244828  0.99251812     0.24330
C435        C  0.90270638  0.51455298  0.99994651    -0.23660
C436        C  0.88547724  0.48687532  0.00736649     0.19230
F437        F  0.90059488  0.45943769  0.01497125    -0.13620
F438        F  0.83708779  0.46018850  0.01647653    -0.15980
F439        F  0.90130939  0.56969070  0.98486747    -0.15990
F440        F  0.83782402  0.56978474  0.98350378    -0.13620
C441        C  0.52900015  0.86723942  0.99565062     0.24390
C442        C  0.50056502  0.85004179  0.00002411    -0.23720
C443        C  0.47223471  0.86734419  0.00448297     0.19300
C444        C  0.47231380  0.90051691  0.00423700     0.24330
C445        C  0.50077797  0.91753466  0.00025178    -0.23660
C446        C  0.52913047  0.90041355  0.99613552     0.19230
F447        F  0.55722827  0.91565150  0.99206473    -0.13620
F448        F  0.55693208  0.85233782  0.99008530    -0.15980
F449        F  0.44429474  0.91584998  0.00838610    -0.15990
F450        F  0.44419908  0.85254301  0.00988147    -0.13620
loop_ 
_geom_bond_atom_site_label_1 
_geom_bond_atom_site_label_2 
_geom_bond_distance 
_geom_bond_site_symmetry_2 
_ccdc_geom_bond_type 
N1            N2   1.315       .  A
N1            C5   1.357       .  A
N1           Cu9   2.085       .  S
N2            C3   1.330   1_556  A
N2           Cu8   2.032       .  S
C3            C4   1.379   1_554  A
C3            H6   1.080       .  S
C4            C5   1.395       .  A
C4           C76   1.477       .  S
C5            H7   1.082       .  S
Cu8          N11   2.032   1_556  S
Cu9          N19   2.094       .  S
Cu10         N12   2.084       .  S
Cu10         N18   2.093       .  S
N11          N12   1.315       .  A
N11          C15   1.330   1_554  A
N12          C13   1.357       .  A
C13          C14   1.395       .  A
C13          H16   1.082       .  S
C14          C15   1.379   1_554  A
C14          C28   1.477       .  S
C15          H17   1.080       .  S
N18          N19   1.328   1_554  A
N18          C22   1.343       .  A
N19          C20   1.343       .  A
C20          C21   1.389       .  A
C20          H23   1.079       .  S
C21          C22   1.389   1_556  A
C21         C442   1.495   1_556  S
C22          H24   1.079       .  S
N25          N26   1.315       .  A
N25          C29   1.358       .  A
N25         Cu33   2.090       .  S
N26          C27   1.330   1_554  A
N26         Cu32   2.027   1_554  S
C27          C28   1.378   1_556  A
C27          H30   1.080       .  S
C28          C29   1.396       .  A
C29          H31   1.081       .  S
Cu32         N35   2.027       .  S
Cu33         N43   2.099       .  S
Cu34         N36   2.086       .  S
Cu34         N42   2.095       .  S
N35          N36   1.315       .  A
N35          C39   1.330   1_556  A
N36          C37   1.357       .  A
C37          C38   1.396       .  A
C37          H40   1.081       .  S
C38          C39   1.378   1_556  A
C38          C52   1.476   1_556  S
C39          H41   1.080       .  S
N42          N43   1.329   1_556  A
N42          C46   1.344       .  A
N43          C44   1.344       .  A
C44          C45   1.387   1_554  A
C44          H47   1.080       .  S
C45          C46   1.386       .  A
C45         C432   1.491       .  S
C46          H48   1.080       .  S
N49          N50   1.315       .  A
N49          C53   1.357       .  A
N49         Cu57   2.084       .  S
N50          C51   1.330   1_554  A
N50         Cu56   2.030       .  S
C51          C52   1.378   1_556  A
C51          H54   1.080       .  S
C52          C53   1.395       .  A
C53          H55   1.082       .  S
Cu56         N59   2.030   1_554  S
Cu57         N67   2.093       .  S
Cu58         N60   2.085       .  S
Cu58         N66   2.093       .  S
N59          N60   1.315       .  A
N59          C63   1.330   1_556  A
N60          C61   1.357       .  A
C61          C62   1.395   1_556  A
C61          H64   1.082       .  S
C62          C63   1.378       .  A
C62          C86   1.476       .  S
C63          H65   1.080       .  S
N66          N67   1.328   1_556  A
N66          C70   1.343       .  A
N67          C68   1.343       .  A
C68          C69   1.388   1_554  A
C68          H71   1.079       .  S
C69          C70   1.388       .  A
C69         C425   1.493   1_556  S
C70          H72   1.079       .  S
N73          N74   1.315       .  A
N73          C77   1.357       .  A
N73         Cu81   2.088       .  S
N74          C75   1.330   1_556  A
N74         Cu80   2.027   1_556  S
C75          C76   1.378   1_554  A
C75          H78   1.080       .  S
C76          C77   1.396       .  A
C77          H79   1.081       .  S
Cu80         N83   2.028       .  S
Cu81         N91   2.097       .  S
Cu82         N84   2.086       .  S
Cu82         N90   2.095       .  S
N83          N84   1.315       .  A
N83          C87   1.330   1_554  A
N84          C85   1.357       .  A
C85          C86   1.396       .  A
C85          H88   1.081       .  S
C86          C87   1.378   1_554  A
C87          H89   1.080       .  S
N90          N91   1.330   1_554  A
N90          C94   1.344       .  A
N91          C92   1.344       .  A
C92          C93   1.386       .  A
C92          H95   1.080       .  S
C93          C94   1.385   1_556  A
C93         C412   1.488   1_556  S
C94          H96   1.080       .  S
N97          N98   1.316       .  A
N97         C101   1.358       .  A
N97        Cu105   2.094       .  S
N98          C99   1.331       .  A
N98        Cu104   2.036       .  S
C99         C100   1.379       .  A
C99         H102   1.080   1_455  S
C100        C101   1.397       .  A
C100        C124   1.481       .  S
C101        H103   1.081       .  S
Cu104       N107   2.036       .  S
Cu105       N115   2.102       .  S
Cu106       N108   2.091       .  S
Cu106       N114   2.099       .  S
N107        N108   1.316   1_455  A
N107        C111   1.331       .  A
N108        C109   1.358       .  A
C109        C110   1.396   1_655  A
C109        H112   1.081       .  S
C110        C111   1.379       .  A
C110        C182   1.480       .  S
C111        H113   1.080       .  S
N114        N115   1.331   1_655  A
N114        C118   1.346       .  A
N115        C116   1.346       .  A
C116        C117   1.383       .  A
C116        H119   1.082       .  S
C117        C118   1.382   1_455  A
C117        C405   1.481       .  S
C118        H120   1.082       .  S
N121        N122   1.316       .  A
N121        C125   1.359       .  A
N121       Cu129   2.096       .  S
N122        C123   1.331   1_455  A
N122       Cu128   2.033   1_455  S
C123        C124   1.379   1_655  A
C123        H126   1.080       .  S
C124        C125   1.397       .  A
C125        H127   1.082       .  S
Cu128       N131   2.033       .  S
Cu129       N139   2.105       .  S
Cu130       N132   2.095       .  S
Cu130       N138   2.104       .  S
N131        N132   1.316       .  A
N131        C135   1.331   1_655  A
N132        C133   1.359       .  A
C133        C134   1.397   1_655  A
C133        H136   1.082       .  S
C134        C135   1.379       .  A
C134        C148   1.481       .  S
C135        H137   1.080       .  S
N138        N139   1.332   1_655  A
N138        C142   1.347       .  A
N139        C140   1.347       .  A
C140        C141   1.380       .  A
C140        H143   1.082       .  S
C141        C142   1.379   1_455  A
C141        C395   1.474       .  S
C142        H144   1.082       .  S
N145        N146   1.316   1_655  A
N145        C149   1.358       .  A
N145       Cu153   2.094       .  S
N146        C147   1.331       .  A
N146       Cu152   2.036       .  S
C147        C148   1.379       .  A
C147        H150   1.080       .  S
C148        C149   1.397   1_455  A
C149        H151   1.081       .  S
Cu152       N155   2.036       .  S
Cu153       N163   2.102       .  S
Cu154       N156   2.092       .  S
Cu154       N162   2.100       .  S
N155        N156   1.316       .  A
N155        C159   1.331       .  A
N156        C157   1.358       .  A
C157        C158   1.396       .  A
C157        H160   1.081       .  S
C158        C159   1.380       .  A
C158        C172   1.480       .  S
C159        H161   1.080   1_455  S
N162        N163   1.331   1_455  A
N162        C166   1.346       .  A
N163        C164   1.346       .  A
C164        C165   1.382   1_655  A
C164        H167   1.082       .  S
C165        C166   1.381       .  A
C165        C382   1.479       .  S
C166        H168   1.082       .  S
N169        N170   1.316       .  A
N169        C173   1.359       .  A
N169       Cu177   2.097       .  S
N170        C171   1.331   1_455  A
N170       Cu176   2.031       .  S
C171        C172   1.378   1_655  A
C171        H174   1.080       .  S
C172        C173   1.398       .  A
C173        H175   1.082       .  S
Cu176       N179   2.031       .  S
Cu177       N187   2.105       .  S
Cu178       N180   2.095       .  S
Cu178       N186   2.104   1_655  S
N179        N180   1.315   1_455  A
N179        C183   1.331       .  A
N180        C181   1.358       .  A
C181        C182   1.397   1_655  A
C181        H184   1.082       .  S
C182        C183   1.379       .  A
C183        H185   1.080       .  S
N186        N187   1.332       .  A
N186        C190   1.347   1_455  A
N187        C188   1.347       .  A
C188        C189   1.379       .  A
C188        H191   1.082       .  S
C189        C190   1.379   1_455  A
C189        C375   1.472       .  S
C190        H192   1.082       .  S
N193        N194   1.316       .  A
N193        C197   1.358       .  A
N193       Cu201   2.088       .  S
N194        C195   1.331       .  A
N194       Cu200   2.034       .  S
C195        C196   1.379       .  A
C195        H198   1.080       .  S
C196        C197   1.396       .  A
C196        C268   1.478       .  S
C197        H199   1.082       .  S
Cu200       N203   2.034       .  S
Cu201       N211   2.096       .  S
Cu202       N204   2.088       .  S
Cu202       N210   2.096       .  S
N203        N204   1.316       .  A
N203        C207   1.331       .  A
N204        C205   1.358       .  A
C205        C206   1.396       .  A
C205        H208   1.082       .  S
C206        C207   1.379       .  A
C206        C220   1.478       .  S
C207        H209   1.080       .  S
N210        N211   1.329       .  A
N210        C214   1.344       .  A
N211        C212   1.344       .  A
C212        C213   1.386       .  A
C212        H215   1.080       .  S
C213        C214   1.387       .  A
C213        C365   1.490       .  S
C214        H216   1.080       .  S
N217        N218   1.315       .  A
N217        C221   1.358       .  A
N217       Cu225   2.092       .  S
N218        C219   1.330       .  A
N218       Cu224   2.029       .  S
C219        C220   1.378       .  A
C219        H222   1.080       .  S
C220        C221   1.397       .  A
C221        H223   1.082       .  S
Cu224       N227   2.029       .  S
Cu225       N235   2.101       .  S
Cu226       N228   2.092       .  S
Cu226       N234   2.101       .  S
N227        N228   1.315       .  A
N227        C231   1.330       .  A
N228        C229   1.358       .  A
C229        C230   1.397       .  A
C229        H232   1.082       .  S
C230        C231   1.378       .  A
C230        C254   1.478       .  S
C231        H233   1.080       .  S
N234        N235   1.332       .  A
N234        C238   1.346       .  A
N235        C236   1.346       .  A
C236        C237   1.379       .  A
C236        H239   1.082       .  S
C237        C238   1.379       .  A
C237        C352   1.473       .  S
C238        H240   1.082       .  S
N241        N242   1.316       .  A
N241        C245   1.357       .  A
N241       Cu249   2.087       .  S
N242        C243   1.331       .  A
N242       Cu248   2.035       .  S
C243        C244   1.379       .  A
C243        H246   1.080       .  S
C244        C245   1.396       .  A
C244        C278   1.478       .  S
C245        H247   1.082       .  S
Cu248       N251   2.035       .  S
Cu249       N259   2.096       .  S
Cu250       N252   2.088       .  S
Cu250       N258   2.096       .  S
N251        N252   1.316       .  A
N251        C255   1.331       .  A
N252        C253   1.357       .  A
C253        C254   1.396       .  A
C253        H256   1.082       .  S
C254        C255   1.379       .  A
C255        H257   1.080       .  S
N258        N259   1.330       .  A
N258        C262   1.345       .  A
N259        C260   1.344       .  A
C260        C261   1.383       .  A
C260        H263   1.082       .  S
C261        C262   1.383       .  A
C261        C342   1.482       .  S
C262        H264   1.082       .  S
N265        N266   1.315       .  A
N265        C269   1.358       .  A
N265       Cu273   2.093       .  S
N266        C267   1.330       .  A
N266       Cu272   2.028       .  S
C267        C268   1.378       .  A
C267        H270   1.080       .  S
C268        C269   1.397       .  A
C269        H271   1.082       .  S
Cu272       N275   2.028       .  S
Cu273       N283   2.101       .  S
Cu274       N276   2.093       .  S
Cu274       N282   2.101       .  S
N275        N276   1.315       .  A
N275        C279   1.330       .  A
N276        C277   1.358       .  A
C277        C278   1.397       .  A
C277        H280   1.082       .  S
C278        C279   1.378       .  A
C279        H281   1.080       .  S
N282        N283   1.329       .  A
N282        C286   1.345       .  A
N283        C284   1.345       .  A
C284        C285   1.388       .  A
C284        H287   1.080       .  S
C285        C286   1.388       .  A
C285        C335   1.495       .  S
C286        H288   1.080       .  S
O289       Cu297   2.016   1_665  S
O289        C299   1.278   1_655  A
O290       Cu297   2.009       .  S
O290        C300   1.277       .  A
O291       Cu297   2.010       .  S
O291        C301   1.279       .  A
O292       Cu297   2.008   1_655  S
O292        C302   1.277       .  A
O293       Cu298   2.011   1_655  S
O293        C302   1.278       .  A
O294       Cu298   2.009       .  S
O294        C301   1.278       .  A
O295       Cu298   2.016   1_655  S
O295        C300   1.278   1_655  A
O296       Cu298   2.008   1_565  S
O296        C299   1.277       .  A
Cu297      Cu298   2.373       .  S
C299        C392   1.470       .  S
C300        C372   1.469       .  S
C301        C332   1.487       .  S
C302        C355   1.470       .  S
O303       Cu311   2.003       .  S
O303        C313   1.277       .  A
O304       Cu311   2.000   1_565  S
O304        C314   1.277       .  A
O305       Cu311   2.006       .  S
O305        C315   1.278       .  A
O306       Cu311   2.006   1_556  S
O306        C316   1.278       .  A
O307       Cu312   2.004   1_556  S
O307        C316   1.278       .  A
O308       Cu312   2.004       .  S
O308        C315   1.277       .  A
O309       Cu312   2.005   1_565  S
O309        C314   1.278       .  A
O310       Cu312   2.002       .  S
O310        C313   1.277       .  A
Cu311      Cu312   2.368       .  S
C313        C422   1.485       .  S
C314        C445   1.485       .  S
C315        C345   1.478       .  S
C316        C362   1.485       .  S
O317       Cu325   2.011       .  S
O317        C327   1.278       .  A
O318       Cu325   2.010   1_656  S
O318        C328   1.278   1_655  A
O319       Cu325   2.007   1_556  S
O319        C329   1.278   1_556  A
O320       Cu325   2.008   1_655  S
O320        C330   1.278       .  A
O321       Cu326   2.003   1_656  S
O321        C330   1.278   1_556  A
O322       Cu326   2.004       .  S
O322        C329   1.278       .  A
O323       Cu326   2.008   1_556  S
O323        C328   1.278       .  A
O324       Cu326   2.008   1_655  S
O324        C327   1.277   1_655  A
Cu325      Cu326   2.370       .  S
C327        C385   1.474       .  S
C328        C402   1.477       .  S
C329        C415   1.484       .  S
C330        C435   1.486   1_554  S
C331        C332   1.408       .  A
C331        C336   1.399       .  A
C331        F338   1.358       .  S
C332        C333   1.408       .  A
C333        C334   1.399       .  A
C333        F340   1.358       .  S
C334        C335   1.411       .  A
C334        F339   1.356       .  S
C335        C336   1.411       .  A
C336        F337   1.356   1_545  S
C341        C342   1.408       .  A
C341        C346   1.398       .  A
C341        F348   1.357       .  S
C342        C343   1.408       .  A
C343        C344   1.398       .  A
C343        F350   1.357   1_545  S
C344        C345   1.406       .  A
C344        F349   1.358   1_545  S
C345        C346   1.407       .  A
C346        F347   1.358       .  S
C351        C352   1.405   1_565  A
C351        C356   1.400       .  A
C351        F358   1.358       .  S
C352        C353   1.405       .  A
C353        C354   1.399       .  A
C353        F360   1.358       .  S
C354        C355   1.404       .  A
C354        F359   1.358       .  S
C355        C356   1.404   1_545  A
C356        F357   1.358       .  S
C361        C362   1.408       .  A
C361        C366   1.398       .  A
C361        F368   1.358   1_545  S
C362        C363   1.408       .  A
C363        C364   1.398       .  A
C363        F370   1.358       .  S
C364        C365   1.410       .  A
C364        F369   1.356       .  S
C365        C366   1.410       .  A
C366        F367   1.356   1_545  S
C371        C372   1.404       .  A
C371        C376   1.401       .  A
C371        F378   1.358       .  S
C372        C373   1.404   1_455  A
C373        C374   1.401       .  A
C373        F380   1.358       .  S
C374        C375   1.404   1_655  A
C374        F379   1.358       .  S
C375        C376   1.404       .  A
C376        F377   1.358       .  S
C381        C382   1.406   1_655  A
C381        C386   1.399       .  A
C381        F388   1.358       .  S
C382        C383   1.407       .  A
C383        C384   1.399       .  A
C383        F390   1.358       .  S
C384        C385   1.405       .  A
C384        F389   1.358       .  S
C385        C386   1.405   1_455  A
C386        F387   1.358       .  S
C391        C392   1.404   1_655  A
C391        C396   1.401       .  A
C391        F398   1.358       .  S
C392        C393   1.404       .  A
C393        C394   1.400       .  A
C393        F400   1.358       .  S
C394        C395   1.405       .  A
C394        F399   1.358       .  S
C395        C396   1.405   1_455  A
C396        F397   1.358       .  S
C401        C402   1.406   1_655  A
C401        C406   1.399       .  A
C401        F408   1.358       .  S
C402        C403   1.406       .  A
C403        C404   1.399       .  A
C403        F410   1.358       .  S
C404        C405   1.407       .  A
C404        F409   1.358       .  S
C405        C406   1.407   1_455  A
C406        F407   1.358       .  S
C411        C412   1.410   1_556  A
C411        C416   1.398       .  A
C411        F418   1.357       .  S
C412        C413   1.409       .  A
C413        C414   1.398       .  A
C413        F420   1.357       .  S
C414        C415   1.408       .  A
C414        F419   1.358       .  S
C415        C416   1.408   1_554  A
C416        F417   1.358       .  S
C421        C422   1.408   1_556  A
C421        C426   1.397       .  A
C421        F428   1.358       .  S
C422        C423   1.408       .  A
C423        C424   1.397       .  A
C423        F430   1.358       .  S
C424        C425   1.412       .  A
C424        F429   1.356       .  S
C425        C426   1.412   1_554  A
C426        F427   1.356       .  S
C431        C432   1.411   1_554  A
C431        C436   1.398       .  A
C431        F438   1.356       .  S
C432        C433   1.410       .  A
C433        C434   1.398       .  A
C433        F440   1.356       .  S
C434        C435   1.409       .  A
C434        F439   1.358       .  S
C435        C436   1.408   1_556  A
C436        F437   1.358       .  S
C441        C442   1.413   1_556  A
C441        C446   1.397       .  A
C441        F448   1.355       .  S
C442        C443   1.412       .  A
C443        C444   1.397       .  A
C443        F450   1.355       .  S
C444        C445   1.408       .  A
C444        F449   1.358       .  S
C445        C446   1.407   1_554  A
C446        F447   1.358       .  S
