geometry optimzed in LAMMPS
_audit_creation_date              2020-11-30 
_audit_creation_method            'lammps2cif' 
_symmetry_space_group_name_H-M    'P1' 
_symmetry_Int_Tables_number       1 
_symmetry_cell_setting            triclinic 
loop_ 
_symmetry_equiv_pos_as_xyz 
  x,y,z 
_cell_length_a                    26.104890677468493 
_cell_length_b                    26.60510487016416 
_cell_length_c                    61.176014435263404 
_cell_angle_alpha                 89.72623317283278 
_cell_angle_beta                  90.123300529478 
_cell_angle_gamma                 89.19774993938746 
loop_ 
_atom_site_label 
_atom_site_type_symbol 
_atom_site_fract_x 
_atom_site_fract_y 
_atom_site_fract_z 
_atom_site_charge 
O1          O  0.01279397  0.93633665  0.47599107    -0.73000
O2          O  0.05524126  0.03246670  0.52313477    -0.73780
O3          O  0.01460775  0.93349302  0.52171769    -0.62400
O4          O  0.05386719  0.03486828  0.47619059    -0.70810
O5          O  0.97567392  0.06884631  0.47721007    -0.70360
O6          O  0.93628494  0.96713996  0.52280136    -0.61620
O7          O  0.97693586  0.06623189  0.52308088    -0.74130
O8          O  0.93451370  0.97017886  0.47593809    -0.72910
Cu9        Cu  0.03696237  0.98332819  0.49923641     1.04560
Cu10       Cu  0.95304621  0.01915349  0.49979135     1.04330
C11         C  0.96688991  0.93783173  0.46873724     0.93400
C12         C  0.02273334  0.06464792  0.53041817     0.92540
C13         C  0.96908247  0.93406837  0.52924144     0.84680
C14         C  0.02111641  0.06771280  0.46956057     0.90950
C15         C  0.99859666  0.00035755  0.74725705    -0.02350
C16         C  0.01162893  0.00212040  0.25442582    -0.02350
N17         N  0.93723731  0.80689473  0.34626401    -0.27150
N18         N  0.91192521  0.84478092  0.35528882    -0.35010
C19         C  0.90410412  0.88057109  0.34009481     0.01190
C20         C  0.92670949  0.86547755  0.32059378     0.07220
C21         C  0.94728227  0.81828272  0.32523644    -0.05880
H22         H  0.88811716  0.91733646  0.34369168     0.07890
H23         H  0.97260563  0.79622513  0.31502047     0.09090
Cu24       Cu  0.90466865  0.85533875  0.38889320     0.44170
Cu25       Cu  0.96289064  0.74470842  0.36378236     0.41990
Cu26       Cu  0.96031937  0.75821404  0.42237390     0.43880
N27         N  0.92511090  0.86632133  0.42147191    -0.34530
N28         N  0.94841126  0.83089356  0.43318543    -0.28790
C29         C  0.96540765  0.85080685  0.45194092    -0.04890
C30         C  0.95141135  0.90101426  0.45228363     0.07330
C31         C  0.92568699  0.90972874  0.43277606     0.01120
H32         H  0.98761192  0.83052900  0.46414975     0.08780
H33         H  0.91188966  0.94559399  0.42658107     0.07850
N34         N  0.97347550  0.69044139  0.40688279    -0.35980
N35         N  0.97636466  0.68597097  0.38543417    -0.28160
C36         C  0.98535207  0.63756296  0.38049957    -0.03400
C37         C  0.98841676  0.61004853  0.39975975     0.05210
C38         C  0.97994833  0.64489023  0.41617659     0.03300
H39         H  0.98845390  0.62321418  0.36403270     0.08410
H40         H  0.97649593  0.63798895  0.43347776     0.07240
O41         O  0.06404551  0.02205622  0.97647146    -0.72800
O42         O  0.96473216  0.06316038  0.02332323    -0.73780
O43         O  0.06384039  0.01777761  0.02220548    -0.62400
O44         O  0.96514369  0.06819624  0.97660570    -0.70810
O45         O  0.92846170  0.99333105  0.97586852    -0.70360
O46         O  0.02711760  0.94292162  0.02160782    -0.61620
O47         O  0.92808855  0.98838103  0.02144113    -0.74130
O48         O  0.02717076  0.94736193  0.97484485    -0.72910
Cu49       Cu  0.01561329  0.04550802  0.99969175     1.04560
Cu50       Cu  0.97662120  0.96527804  0.99837692     1.04330
C51         C  0.06116513  0.97807576  0.96836640     0.93400
C52         C  0.93066567  0.03224523  0.02962235     0.92540
C53         C  0.06100593  0.97256582  0.02906447     0.84680
C54         C  0.93099404  0.03878751  0.96923894     0.90950
N55         N  0.80717853  0.06552560  0.15602510    -0.27150
N56         N  0.85126842  0.06814268  0.14567337    -0.35010
C57         C  0.88957178  0.06147978  0.16001150     0.01190
C58         C  0.86947933  0.05505340  0.18085596     0.07220
C59         C  0.81654128  0.05857707  0.17750416    -0.05880
H60         H  0.92944434  0.05982793  0.15528664     0.07890
H61         H  0.78630758  0.05584742  0.18933103     0.09090
Cu62       Cu  0.85911044  0.07641652  0.11239735     0.44170
Cu63       Cu  0.73746964  0.06354148  0.13942265     0.41990
Cu64       Cu  0.75294237  0.03829048  0.08061767     0.43880
N65         N  0.86391542  0.06542898  0.07923444    -0.34530
N66         N  0.82565918  0.04720419  0.06770516    -0.28790
C67         C  0.84305343  0.03459844  0.04777304    -0.04890
C68         C  0.89438886  0.04657126  0.04671382     0.07330
C69         C  0.90639877  0.06613223  0.06688307     0.01120
H70         H  0.82053282  0.01649921  0.03528642     0.08780
H71         H  0.94406029  0.07588761  0.07277694     0.07850
N72         N  0.68339403  0.03835309  0.09697431    -0.35980
N73         N  0.67742749  0.04877513  0.11797192    -0.28160
C74         C  0.62761258  0.04420444  0.12314632    -0.03400
C75         C  0.60115156  0.03068389  0.10452555     0.05210
C76         C  0.63767254  0.02675444  0.08832563     0.03300
H77         H  0.61218018  0.04826682  0.13944520     0.08410
H78         H  0.63168865  0.01507269  0.07161328     0.07240
N79         N  0.08856182  0.20080895  0.34671178    -0.27150
N80         N  0.09042345  0.15636437  0.35632738    -0.35010
C81         C  0.08798271  0.12072496  0.34102522     0.01190
C82         C  0.08442738  0.14330550  0.32054719     0.07220
C83         C  0.08571838  0.19454088  0.32490064    -0.05880
H84         H  0.08537429  0.08101305  0.34468695     0.07890
H85         H  0.08265977  0.22537871  0.31349665     0.09090
Cu86       Cu  0.08654111  0.14475587  0.38971700     0.44170
Cu87       Cu  0.07823914  0.26626579  0.36425813     0.41990
Cu88       Cu  0.03128583  0.24577178  0.42029955     0.43880
N89         N  0.06280622  0.13681921  0.42172994    -0.34530
N90         N  0.03877803  0.17306512  0.43247695    -0.28790
C91         C  0.02100962  0.15432841  0.45142596    -0.04890
C92         C  0.03554666  0.10421460  0.45275047     0.07330
C93         C  0.06212895  0.09435662  0.43372947     0.01120
H94         H  0.99873250  0.17543494  0.46322117     0.08780
H95         H  0.07699603  0.05830322  0.42838040     0.07850
N96         N  0.03353300  0.31518602  0.40467807    -0.35980
N97         N  0.05148426  0.32237065  0.38470202    -0.28160
C98         C  0.04679263  0.37127475  0.37947464    -0.03400
C99         C  0.02422826  0.39593925  0.39682768     0.05210
C100        C  0.01703230  0.35955507  0.41267455     0.03300
H101        H  0.05907499  0.38752760  0.36416229     0.08410
H102        H  0.00038244  0.36479981  0.42869184     0.07240
N103        N  0.18874475  0.92169214  0.15395816    -0.27150
N104        N  0.14265404  0.92139446  0.14501495    -0.35010
C105        C  0.10736775  0.92916459  0.16069104     0.01190
C106        C  0.13241585  0.93522422  0.18046007     0.07220
C107        C  0.18397028  0.92883962  0.17558743    -0.05880
H108        H  0.06662082  0.93294447  0.15773515     0.07890
H109        H  0.21606003  0.93042789  0.18664911     0.09090
Cu110      Cu  0.13052129  0.91814679  0.11161092     0.44170
Cu111      Cu  0.25625069  0.92347447  0.13608446     0.41990
Cu112      Cu  0.23927049  0.95778820  0.07930804     0.43880
N113        N  0.12676146  0.93300775  0.07842147    -0.34530
N114        N  0.16553367  0.95098280  0.06706036    -0.28790
C115        C  0.14842983  0.96555559  0.04725093    -0.04890
C116        C  0.09679850  0.95521362  0.04598241     0.07330
C117        C  0.08424378  0.93454206  0.06596396     0.01120
H118        H  0.17144397  0.98401497  0.03499691     0.08780
H119        H  0.04628132  0.92546373  0.07168947     0.07850
N120        N  0.30982728  0.95683522  0.09497397    -0.35980
N121        N  0.31623162  0.94274308  0.11557332    -0.28160
C122        C  0.36586428  0.94755650  0.12101590    -0.03400
C123        C  0.39187422  0.96513068  0.10293703     0.05210
C124        C  0.35519286  0.97113712  0.08678372     0.03300
H125        H  0.38144228  0.94077794  0.13717339     0.08410
H126        H  0.36082796  0.98585207  0.07046665     0.07240
N127        N  0.81188649  0.06842750  0.84686364    -0.27150
N128        N  0.84972172  0.09285131  0.85615449    -0.35010
C129        C  0.88825790  0.09715894  0.84175417     0.01190
C130        C  0.87525305  0.07236868  0.82256947     0.07220
C131        C  0.82595023  0.05534354  0.82655299    -0.05880
H132        H  0.92346707  0.11538719  0.84568453     0.07890
H133        H  0.80262943  0.03284665  0.81585530     0.09090
Cu134      Cu  0.85366373  0.10628330  0.88951708     0.44170
Cu135      Cu  0.74414595  0.05089066  0.86254740     0.41990
Cu136      Cu  0.75136776  0.04900414  0.92069322     0.43880
N137        N  0.86012367  0.08577537  0.92221133    -0.34530
N138        N  0.82376344  0.06182204  0.93289693    -0.28790
C139        C  0.84307891  0.04345289  0.95169845    -0.04890
C140        C  0.89374020  0.05708451  0.95308374     0.07330
C141        C  0.90340427  0.08412787  0.93423082     0.01120
H142        H  0.82238314  0.01992887  0.96302862     0.08780
H143        H  0.94020175  0.09739145  0.92872543     0.07850
N144        N  0.68411138  0.03687925  0.90387504    -0.35980
N145        N  0.68142068  0.03759202  0.88230293    -0.28160
C146        C  0.63311728  0.02791450  0.87614127    -0.03400
C147        C  0.60439585  0.02048844  0.89477442     0.05210
C148        C  0.63766189  0.02661184  0.91208875     0.03300
H149        H  0.62007180  0.02578159  0.85938793     0.08410
H150        H  0.62896396  0.02329470  0.92931063     0.07240
N151        N  0.91369075  0.80309502  0.65176640    -0.27150
N152        N  0.90697796  0.84601783  0.64134649    -0.35010
C153        C  0.91274678  0.88380950  0.65542129     0.01190
C154        C  0.92349984  0.86470847  0.67628997     0.07220
C155        C  0.92275615  0.81258176  0.67299513    -0.05880
H156        H  0.91310464  0.92242816  0.64999092     0.07890
H157        H  0.93058699  0.78259461  0.68431722     0.09090
Cu158      Cu  0.90274597  0.85359538  0.60788073     0.44170
Cu159      Cu  0.92373299  0.73558023  0.63535830     0.41990
Cu160      Cu  0.96418773  0.75479068  0.57835051     0.43880
N161        N  0.92642499  0.86196981  0.57603231    -0.34530
N162        N  0.95326380  0.82702107  0.56567859    -0.28790
C163        C  0.97164552  0.84694094  0.54705656    -0.04890
C164        C  0.95464883  0.89640870  0.54559012     0.07330
C165        C  0.92593258  0.90461736  0.56415947     0.01120
H166        H  0.99629580  0.82723698  0.53566184     0.08780
H167        H  0.90918534  0.93993726  0.56944838     0.07850
N168        N  0.96437421  0.68544079  0.59437743    -0.35980
N169        N  0.94861414  0.67848633  0.61472550    -0.28160
C170        C  0.95420395  0.62957167  0.61999637    -0.03400
C171        C  0.97462284  0.60469776  0.60221265     0.05210
C172        C  0.98039814  0.64101398  0.58621765     0.03300
H173        H  0.94520169  0.61352350  0.63578021     0.08410
H174        H  0.99565949  0.63567870  0.56995834     0.07240
N175        N  0.08143797  0.19560470  0.65484662    -0.27150
N176        N  0.08356681  0.15123522  0.64537503    -0.35010
C177        C  0.08263866  0.11548107  0.66081924     0.01190
C178        C  0.08022948  0.13759400  0.68140794     0.07220
C179        C  0.08012102  0.18904158  0.67670751    -0.05880
H180        H  0.08042785  0.07589079  0.65707898     0.07890
H181        H  0.07767910  0.22013278  0.68784314     0.09090
Cu182      Cu  0.08039902  0.13918111  0.61195289     0.44170
Cu183      Cu  0.07059039  0.26173856  0.63713198     0.41990
Cu184      Cu  0.03557860  0.24213690  0.57946648     0.43880
N185        N  0.06154390  0.13163680  0.57923289    -0.34530
N186        N  0.04163801  0.16908571  0.56759950    -0.28790
C187        C  0.02601008  0.15120752  0.54818256    -0.04890
C188        C  0.03772151  0.10033434  0.54744487     0.07330
C189        C  0.06033239  0.08916083  0.56736438     0.01120
H190        H  0.00672998  0.17336515  0.53569658     0.08780
H191        H  0.07184496  0.05236309  0.57334228     0.07850
N192        N  0.03477883  0.31162677  0.59500041    -0.35980
N193        N  0.04778649  0.31867188  0.61567924    -0.28160
C194        C  0.04151007  0.36762711  0.62052891    -0.03400
C195        C  0.02323230  0.39251133  0.60215298     0.05210
C196        C  0.02007850  0.35600583  0.58618759     0.03300
H197        H  0.04860320  0.38376638  0.63642642     0.08410
H198        H  0.00836210  0.36114968  0.56936570     0.07240
N199        N  0.19003887  0.90921384  0.84511868    -0.27150
N200        N  0.14501675  0.90860639  0.85488125    -0.35010
C201        C  0.10805723  0.91470632  0.83980916     0.01190
C202        C  0.13045341  0.91960127  0.81939164     0.07220
C203        C  0.18271384  0.91440737  0.82344225    -0.05880
H204        H  0.06786868  0.91950776  0.84368898     0.07890
H205        H  0.21368777  0.91700146  0.81192705     0.09090
Cu206      Cu  0.13467633  0.91059380  0.88829998     0.44170
Cu207      Cu  0.25836926  0.91804516  0.86201456     0.41990
Cu208      Cu  0.23847008  0.96459763  0.91750658     0.43880
N209        N  0.12846849  0.93450049  0.92021092    -0.34530
N210        N  0.16573959  0.95803968  0.93039418    -0.28790
C211        C  0.14780951  0.97642252  0.94936229    -0.04890
C212        C  0.09711756  0.96290477  0.95127636     0.07330
C213        C  0.08605372  0.93617906  0.93261261     0.01120
H214        H  0.16981927  0.99848233  0.96073791     0.08780
H215        H  0.04915312  0.92191833  0.92775043     0.07850
N216        N  0.30855741  0.96295197  0.90184343    -0.35980
N217        N  0.31621486  0.94526258  0.88191768    -0.28160
C218        C  0.36585536  0.95077311  0.87670161    -0.03400
C219        C  0.39020275  0.97335346  0.89408878     0.05210
C220        C  0.35300070  0.98001474  0.90983377     0.03300
H221        H  0.38272666  0.94016378  0.86123280     0.08410
H222        H  0.35774145  0.99597045  0.92592365     0.07240
C223        C  0.94983429  0.51662026  0.59628932    -0.05640
C224        C  0.98853265  0.55086919  0.60100253     0.00290
C225        C  0.03881192  0.53326858  0.60549768    -0.08280
C226        C  0.04878710  0.48117480  0.60522133    -0.05660
C227        C  0.01016237  0.44670906  0.60046146     0.00280
C228        C  0.95971263  0.46445562  0.59595622    -0.08190
C229        C  0.91608707  0.42861319  0.59169084     0.62190
H230        H  0.91159075  0.53119903  0.59307936     0.12880
H231        H  0.08688364  0.46680141  0.60889323     0.12890
C232        C  0.08128285  0.56952313  0.61093526     0.62420
F233        F  0.86929414  0.45358894  0.59034547    -0.22750
F234        F  0.91325021  0.39375378  0.60848003    -0.20070
F235        F  0.92404812  0.40395163  0.57215098    -0.19750
F236        F  0.06816002  0.59693226  0.62929400    -0.19800
F237        F  0.08851278  0.60208003  0.59356474    -0.20130
F238        F  0.12727935  0.54473958  0.61510079    -0.22800
C239        C  0.51365495  0.04695926  0.89561967    -0.05640
C240        C  0.54988371  0.00765734  0.89578417     0.00290
C241        C  0.53378497  0.95718226  0.89613640    -0.08280
C242        C  0.48102856  0.94748953  0.89572673    -0.05660
C243        C  0.44466172  0.98674181  0.89544649     0.00280
C244        C  0.46082255  0.03735470  0.89555239    -0.08190
C245        C  0.42255347  0.08084885  0.89495173     0.62190
H246        H  0.52721687  0.08525281  0.89538449     0.12880
H247        H  0.46765501  0.90913360  0.89563946     0.12890
C248        C  0.57239064  0.91405355  0.89688603     0.62420
F249        F  0.44655604  0.12678933  0.89333575    -0.22750
F250        F  0.39373450  0.08103827  0.91386968    -0.20070
F251        F  0.39039817  0.07609872  0.87710261    -0.19750
F252        F  0.60209611  0.91767685  0.91554389    -0.19800
F253        F  0.60371134  0.91598909  0.87870979    -0.20130
F254        F  0.54877874  0.86779162  0.89718368    -0.22800
C255        C  0.53721625  0.96366137  0.10180976    -0.05640
C256        C  0.54725832  0.01517495  0.10312974     0.00290
C257        C  0.50625435  0.05047298  0.10309157    -0.08280
C258        C  0.45576310  0.03266850  0.10260001    -0.05660
C259        C  0.44571822  0.98104548  0.10215220     0.00280
C260        C  0.48676199  0.94585522  0.10131547    -0.08190
C261        C  0.47705478  0.88993869  0.09958640     0.62190
H262        H  0.56934176  0.93745629  0.10149717     0.12880
H263        H  0.42363769  0.05887309  0.10291452     0.12890
C264        C  0.51608626  0.10652104  0.10323522     0.62420
F265        F  0.52220503  0.86240098  0.09766457    -0.22750
F266        F  0.44726858  0.88074103  0.08134783    -0.20070
F267        F  0.45176100  0.87339340  0.11803540    -0.19750
F268        F  0.54619896  0.11914484  0.08551274    -0.19800
F269        F  0.54112443  0.11937110  0.12229539    -0.20130
F270        F  0.47101467  0.13444957  0.10197632    -0.22800
C271        C  0.03757064  0.47811994  0.41414001    -0.05640
C272        C  0.01189245  0.44999036  0.39835239     0.00290
C273        C  0.97549308  0.47365849  0.38444266    -0.08280
C274        C  0.96771347  0.52576741  0.38622156    -0.05660
C275        C  0.99493167  0.55466727  0.40137187     0.00280
C276        C  0.03010921  0.53044975  0.41588700    -0.08190
C277        C  0.06094020  0.55908276  0.43270727     0.62190
H278        H  0.06443418  0.45867641  0.42484879     0.12880
H279        H  0.94064490  0.54464787  0.37542886     0.12890
C280        C  0.94446669  0.44405760  0.36800575     0.62420
F281        F  0.09915071  0.52931669  0.44201404    -0.22750
F282        F  0.02910462  0.57515169  0.44934275    -0.20070
F283        F  0.08413563  0.59997134  0.42305179    -0.19750
F284        F  0.92137227  0.40397280  0.37833848    -0.19800
F285        F  0.97603937  0.42624325  0.35160556    -0.20130
F286        F  0.90632569  0.47332370  0.35836392    -0.22800
C287        C  0.95298526  0.94912767  0.30810519    -0.05640
C288        C  0.94138544  0.89981007  0.30244215     0.00290
C289        C  0.93918677  0.88756095  0.27990937    -0.08280
C290        C  0.95803481  0.92272697  0.26448980    -0.05660
C291        C  0.97936046  0.96892434  0.27094322     0.00280
C292        C  0.96301257  0.98536733  0.29221196    -0.08190
C293        C  0.94247067  0.03757756  0.29775895     0.62190
H294        H  0.94935375  0.96122943  0.32491496     0.12880
H295        H  0.95592636  0.91463136  0.24727947     0.12890
C296        C  0.91584550  0.83896761  0.27209522     0.62420
F297        F  0.89757563  0.03381841  0.30968994    -0.22750
F298        F  0.92981983  0.06524176  0.27940079    -0.20070
F299        F  0.97744880  0.06265049  0.31048616    -0.19750
F300        F  0.86942648  0.83146459  0.28238555    -0.19800
F301        F  0.94856652  0.79906426  0.27667932    -0.20130
F302        F  0.90691613  0.83989739  0.24977986    -0.22800
C303        C  0.95139330  0.06406803  0.20074773    -0.05640
C304        C  0.90108037  0.04659507  0.20121979     0.00290
C305        C  0.88479246  0.02162707  0.22039043    -0.08280
C306        C  0.92020726  0.01408074  0.23756107    -0.05660
C307        C  0.97337776  0.02599037  0.23646534     0.00280
C308        C  0.98725996  0.05663729  0.21777054    -0.08190
C309        C  0.03609884  0.08628949  0.21350994     0.62190
H310        H  0.96307827  0.08597344  0.18670398     0.12880
H311        H  0.90451674  0.99866588  0.25226706     0.12890
C312        C  0.83084668  0.00169931  0.22323510     0.62420
F313        F  0.02284958  0.13527555  0.20782766    -0.22750
F314        F  0.06196678  0.06505458  0.19607013    -0.20070
F315        F  0.06905059  0.09045036  0.23069831    -0.19750
F316        F  0.81701624  0.97360648  0.20525651    -0.19800
F317        F  0.79700173  0.04150017  0.22612387    -0.20130
F318        F  0.82672633  0.97058959  0.24135325    -0.22800
C319        C  0.09636296  0.06653236  0.29926509    -0.05640
C320        C  0.07500208  0.11496802  0.29991130     0.00290
C321        C  0.03924230  0.12938750  0.28353211    -0.08280
C322        C  0.02350218  0.09297577  0.26838884    -0.05660
C323        C  0.03921094  0.04171754  0.26941223     0.00280
C324        C  0.07767063  0.02835188  0.28569551    -0.08190
C325        C  0.09901170  0.97495690  0.29054865     0.62190
H326        H  0.12604879  0.05789280  0.31110037     0.12880
H327        H  0.99540153  0.10434018  0.25639114     0.12890
C328        C  0.01527250  0.18172451  0.28234105     0.62420
F329        F  0.13250005  0.97420853  0.30814487    -0.22750
F330        F  0.12628991  0.95544611  0.27327342    -0.20070
F331        F  0.06062646  0.94256123  0.29606892    -0.19750
F332        F  0.05273138  0.21632258  0.27769188    -0.19800
F333        F  0.99164608  0.19336233  0.30191827    -0.20130
F334        F  0.97843750  0.18586789  0.26607784    -0.22800
C335        C  0.06579971  0.92086224  0.20844043    -0.05640
C336        C  0.10828430  0.94852430  0.20169203     0.00290
C337        C  0.12734386  0.98602559  0.21580468    -0.08280
C338        C  0.10010919  0.99660668  0.23512177    -0.05660
C339        C  0.05458948  0.97159971  0.24119593     0.00280
C340        C  0.04714640  0.92531730  0.22991921    -0.08190
C341        C  0.04977238  0.87496093  0.24197104     0.62190
H342        H  0.05536060  0.88820854  0.19894169     0.12880
H343        H  0.11476433  0.02565721  0.24547352     0.12890
C344        C  0.17324235  0.01821797  0.21006147     0.62420
F345        F  0.09430719  0.84910417  0.23637570    -0.22750
F346        F  0.00881633  0.84556198  0.23606759    -0.20070
F347        F  0.05111928  0.88034003  0.26435138    -0.19750
F348        F  0.17109874  0.03315788  0.18838309    -0.19800
F349        F  0.21800240  0.99137642  0.21395368    -0.20130
F350        F  0.17486688  0.06143299  0.22255439    -0.22800
C351        C  0.98416965  0.05123746  0.78158591    -0.05640
C352        C  0.95924514  0.02921785  0.76324232     0.00290
C353        C  0.90323664  0.03003030  0.76426898    -0.08280
C354        C  0.87975642  0.05076394  0.78318455    -0.05660
C355        C  0.90642144  0.06181762  0.80243527     0.00280
C356        C  0.96042646  0.05954720  0.80177581    -0.08190
C357        C  0.99447526  0.06085263  0.82199165     0.62190
H358        H  0.02514745  0.05626094  0.78102529     0.12880
H359        H  0.83878285  0.05689861  0.78347435     0.12890
C360        C  0.86427716  0.01198450  0.74709669     0.62420
F361        F  0.04229648  0.03966411  0.81794778    -0.22750
F362        F  0.97327997  0.03317213  0.83881942    -0.20070
F363        F  0.00167964  0.10996295  0.82838773    -0.19750
F364        F  0.87512771  0.96497526  0.73904783    -0.19800
F365        F  0.85969717  0.04637237  0.73038704    -0.20130
F366        F  0.81549072  0.00791844  0.75576195    -0.22800
C367        C  0.08726895  0.98550920  0.76657811    -0.05640
C368        C  0.03523050  0.97004284  0.76420821     0.00290
C369        C  0.01786185  0.93520664  0.78083898    -0.08280
C370        C  0.05263231  0.91676126  0.79667503    -0.05660
C371        C  0.10236823  0.93467299  0.79903147     0.00280
C372        C  0.11965661  0.97105173  0.78396382    -0.08190
C373        C  0.17048768  0.99795814  0.78658105     0.62190
H374        H  0.10324927  0.01234250  0.75554343     0.12880
H375        H  0.03928393  0.88951154  0.80854262     0.12890
C376        C  0.96372562  0.91619662  0.78455457     0.62420
F377        F  0.17331258  0.04041723  0.77346671    -0.22750
F378        F  0.21031160  0.96615285  0.78069560    -0.20070
F379        F  0.17671645  0.01379024  0.80791503    -0.19750
F380        F  0.96451592  0.86415245  0.78470725    -0.19800
F381        F  0.92872161  0.93110041  0.76922170    -0.20130
F382        F  0.94645519  0.93281089  0.80467669    -0.22800
C383        C  0.97849618  0.91276213  0.73116673    -0.05640
C384        C  0.97289403  0.96581602  0.72933074     0.00290
C385        C  0.94890695  0.98367224  0.70931211    -0.08280
C386        C  0.93220724  0.94849553  0.69379986    -0.05660
C387        C  0.93860107  0.89615831  0.69589218     0.00280
C388        C  0.96158976  0.87792976  0.71552136    -0.08190
C389        C  0.96998550  0.82234111  0.72049544     0.62190
H390        H  0.99914095  0.89728877  0.74472727     0.12880
H391        H  0.91390153  0.96327751  0.67932603     0.12890
C392        C  0.94244618  0.03817938  0.70146805     0.62420
F393        F  0.99269852  0.81380794  0.74068651    -0.22750
F394        F  0.00216876  0.80127254  0.70502049    -0.20070
F395        F  0.92326340  0.79851521  0.72092427    -0.19750
F396        F  0.89600406  0.04488783  0.69073801    -0.19800
F397        F  0.94278635  0.07294201  0.71791765    -0.20130
F398        F  0.98063836  0.04884735  0.68662977    -0.22800
C399        C  0.02903951  0.09077656  0.73670302    -0.05640
C400        C  0.03287819  0.03791488  0.73348055     0.00290
C401        C  0.06803986  0.02180716  0.71660143    -0.08280
C402        C  0.08664401  0.05759679  0.70179068    -0.05660
C403        C  0.07249100  0.10852871  0.70233962     0.00280
C404        C  0.04707662  0.12628257  0.72136823    -0.08190
C405        C  0.03676066  0.18170938  0.72556082     0.62190
H406        H  0.00634825  0.10527941  0.74987739     0.12880
H407        H  0.11110384  0.04456749  0.68864377     0.12890
C408        C  0.08677125  0.96829962  0.71173529     0.62420
F409        F  0.01386459  0.19008181  0.74564771    -0.22750
F410        F  0.00413565  0.20110213  0.70971426    -0.20070
F411        F  0.08258462  0.20714441  0.72561352    -0.19750
F412        F  0.06352343  0.95180697  0.69278854    -0.19800
F413        F  0.07844383  0.93380453  0.72798637    -0.20130
F414        F  0.13924576  0.96843275  0.70842710    -0.22800
loop_ 
_geom_bond_atom_site_label_1 
_geom_bond_atom_site_label_2 
_geom_bond_distance 
_geom_bond_site_symmetry_2 
_ccdc_geom_bond_type 
O1           Cu9   2.005       .  S
O1           C11   1.277   1_455  A
O2           Cu9   2.027   1_545  S
O2           C12   1.279       .  A
O3           Cu9   1.999       .  S
O3           C13   1.275   1_455  A
O4           Cu9   2.016   1_545  S
O4           C14   1.278       .  A
O5          Cu10   2.003       .  S
O5           C14   1.276   1_655  A
O6          Cu10   2.022   1_565  S
O6           C13   1.279       .  A
O7          Cu10   2.006       .  S
O7           C12   1.276   1_655  A
O8          Cu10   2.023   1_565  S
O8           C11   1.278       .  A
Cu9         Cu10   2.377   1_465  S
C11          C30   1.468       .  S
C12         C188   1.469       .  S
C13         C164   1.466       .  S
C14          C92   1.465       .  S
C15         C352   1.610       .  S
C15         C368   1.614   1_645  S
C15         C384   1.588   1_545  S
C15         C400   1.591   1_655  S
C16         C291   1.590   1_445  S
C16         C307   1.606   1_455  S
C16         C323   1.580       .  S
C16         C339   1.599   1_545  S
N17          N18   1.321       .  A
N17          C21   1.347       .  A
N17         Cu25   2.070       .  S
N18          C19   1.341       .  A
N18         Cu24   2.085       .  S
C19          C20   1.391       .  A
C19          H22   1.082       .  S
C20         C288   1.489       .  S
C20          C21   1.387       .  A
C21          H23   1.080       .  S
Cu24         N27   2.085       .  S
Cu25         N35   2.070       .  S
Cu26         N28   2.066       .  S
Cu26         N34   2.066       .  S
N27          N28   1.322       .  A
N27          C31   1.349       .  A
N28          C29   1.343       .  A
C29          C30   1.380       .  A
C29          H32   1.082       .  S
C30          C31   1.385       .  A
C31          H33   1.082       .  S
N34          N35   1.320       .  A
N34          C38   1.345       .  A
N35          C36   1.342       .  A
C36          C37   1.386       .  A
C36          H39   1.082       .  S
C37         C275   1.484       .  S
C37          C38   1.386       .  A
C38          H40   1.078       .  S
O41         Cu49   2.000       .  S
O41          C51   1.276   1_545  A
O42         Cu49   2.018   1_654  S
O42          C52   1.279       .  A
O43         Cu49   1.996   1_554  S
O43          C53   1.275   1_545  A
O44         Cu49   2.014   1_655  S
O44          C54   1.277       .  A
O45         Cu50   1.998       .  S
O45          C54   1.276   1_565  A
O46         Cu50   2.018   1_454  S
O46          C53   1.278       .  A
O47         Cu50   1.992   1_554  S
O47          C52   1.275   1_565  A
O48         Cu50   2.009   1_455  S
O48          C51   1.277       .  A
Cu49        Cu50   2.379   1_445  S
C51         C212   1.461       .  S
C52          C68   1.461       .  S
C53         C116   1.462       .  S
C54         C140   1.462       .  S
N55          N56   1.317       .  A
N55          C59   1.347       .  A
N55         Cu63   2.084       .  S
N56          C57   1.338       .  A
N56         Cu62   2.057       .  S
C57          C58   1.391       .  A
C57          H60   1.081       .  S
C58         C304   1.507       .  S
C58          C59   1.398       .  A
C59          H61   1.075       .  S
Cu62         N65   2.055       .  S
Cu63         N73   2.085       .  S
Cu64         N66   2.074       .  S
Cu64         N72   2.075       .  S
N65          N66   1.320       .  A
N65          C69   1.344       .  A
N66          C67   1.344       .  A
C67          C68   1.383       .  A
C67          H70   1.082       .  S
C68          C69   1.379       .  A
C69          H71   1.082       .  S
N72          N73   1.324       .  A
N72          C76   1.345       .  A
N73          C74   1.346       .  A
C74          C75   1.383       .  A
C74          H77   1.082       .  S
C75         C256   1.474       .  S
C75          C76   1.380       .  A
C76          H78   1.082       .  S
N79          N80   1.318       .  A
N79          C83   1.348       .  A
N79         Cu87   2.065       .  S
N80          C81   1.338       .  A
N80         Cu86   2.067       .  S
C81          C82   1.389       .  A
C81          H84   1.082       .  S
C82         C320   1.495       .  S
C82          C83   1.391       .  A
C83          H85   1.076       .  S
Cu86         N89   2.066       .  S
Cu87         N97   2.067       .  S
Cu88         N90   2.076       .  S
Cu88         N96   2.077       .  S
N89          N90   1.322       .  A
N89          C93   1.345       .  A
N90          C91   1.346       .  A
C91          C92   1.383       .  A
C91          H94   1.082   1_455  S
C92          C93   1.380       .  A
C93          H95   1.082       .  S
N96          N97   1.324       .  A
N96         C100   1.346       .  A
N97          C98   1.342       .  A
C98          C99   1.380       .  A
C98         H101   1.081       .  S
C99         C272   1.473       .  S
C99         C100   1.382       .  A
C100        H102   1.082       .  S
N103        N104   1.321       .  A
N103        C107   1.343       .  A
N103       Cu111   2.077       .  S
N104        C105   1.346       .  A
N104       Cu110   2.070       .  S
C105        C106   1.385       .  A
C105        H108   1.082       .  S
C106        C336   1.487       .  S
C106        C107   1.387       .  A
C107        H109   1.077       .  S
Cu110       N113   2.069       .  S
Cu111       N121   2.077       .  S
Cu112       N114   2.075       .  S
Cu112       N120   2.074       .  S
N113        N114   1.323       .  A
N113        C117   1.345       .  A
N114        C115   1.344       .  A
C115        C116   1.381       .  A
C115        H118   1.082       .  S
C116        C117   1.380       .  A
C117        H119   1.082       .  S
N120        N121   1.323       .  A
N120        C124   1.346       .  A
N121        C122   1.345       .  A
C122        C123   1.382       .  A
C122        H125   1.081       .  S
C123        C259   1.474       .  S
C123        C124   1.382       .  A
C124        H126   1.082       .  S
N127        N128   1.319       .  A
N127        C131   1.343       .  A
N127       Cu135   2.072       .  S
N128        C129   1.344       .  A
N128       Cu134   2.076       .  S
C129        C130   1.393       .  A
C129        H132   1.073       .  S
C130        C355   1.503       .  S
C130        C131   1.392       .  A
C131        H133   1.081       .  S
Cu134       N137   2.077       .  S
Cu135       N145   2.071       .  S
Cu136       N138   2.064       .  S
Cu136       N144   2.063       .  S
N137        N138   1.323       .  A
N137        C141   1.347       .  A
N138        C139   1.342       .  A
C139        C140   1.379       .  A
C139        H142   1.082       .  S
C140        C141   1.382       .  A
C141        H143   1.082       .  S
N144        N145   1.321       .  A
N144        C148   1.345       .  A
N145        C146   1.344       .  A
C146        C147   1.381       .  A
C146        H149   1.081       .  S
C147        C240   1.469       .  S
C147        C148   1.380       .  A
C148        H150   1.082       .  S
N151        N152   1.315       .  A
N151        C155   1.345       .  A
N151       Cu159   2.076       .  S
N152        C153   1.337       .  A
N152       Cu158   2.059       .  S
C153        C154   1.398       .  A
C153        H156   1.078       .  S
C154        C387   1.520       .  S
C154        C155   1.403       .  A
C155        H157   1.071       .  S
Cu158       N161   2.057       .  S
Cu159       N169   2.078       .  S
Cu160       N162   2.084       .  S
Cu160       N168   2.085       .  S
N161        N162   1.321       .  A
N161        C165   1.344       .  A
N162        C163   1.346       .  A
C163        C164   1.385       .  A
C163        H166   1.082       .  S
C164        C165   1.379       .  A
C165        H167   1.082       .  S
N168        N169   1.325       .  A
N168        C172   1.347       .  A
N169        C170   1.345       .  A
C170        C171   1.380       .  A
C170        H173   1.082       .  S
C171        C224   1.475       .  S
C171        C172   1.382       .  A
C172        H174   1.082       .  S
N175        N176   1.318       .  A
N175        C179   1.348       .  A
N175       Cu183   2.078       .  S
N176        C177   1.338       .  A
N176       Cu182   2.073       .  S
C177        C178   1.394       .  A
C177        H180   1.081       .  S
C178        C403   1.508       .  S
C178        C179   1.397       .  A
C179        H181   1.075       .  S
Cu182       N185   2.072       .  S
Cu183       N193   2.079       .  S
Cu184       N186   2.082       .  S
Cu184       N192   2.083       .  S
N185        N186   1.321       .  A
N185        C189   1.347       .  A
N186        C187   1.346       .  A
C187        C188   1.384       .  A
C187        H190   1.082       .  S
C188        C189   1.382       .  A
C189        H191   1.082       .  S
N192        N193   1.324       .  A
N192        C196   1.346       .  A
N193        C194   1.345       .  A
C194        C195   1.383       .  A
C194        H197   1.082       .  S
C195        C227   1.480       .  S
C195        C196   1.384       .  A
C196        H198   1.080       .  S
N199        N200   1.320       .  A
N199        C203   1.346       .  A
N199       Cu207   2.076       .  S
N200        C201   1.341       .  A
N200       Cu206   2.064       .  S
C201        C202   1.387       .  A
C201        H204   1.082       .  S
C202        C371   1.494       .  S
C202        C203   1.391       .  A
C203        H205   1.076       .  S
Cu206       N209   2.062       .  S
Cu207       N217   2.078       .  S
Cu208       N210   2.067       .  S
Cu208       N216   2.067       .  S
N209        N210   1.321       .  A
N209        C213   1.344       .  A
N210        C211   1.344       .  A
C211        C212   1.381       .  A
C211        H214   1.082       .  S
C212        C213   1.380       .  A
C213        H215   1.082       .  S
N216        N217   1.323       .  A
N216        C220   1.344       .  A
N217        C218   1.345       .  A
C218        C219   1.382       .  A
C218        H221   1.082       .  S
C219        C243   1.473       .  S
C219        C220   1.380       .  A
C220        H222   1.081       .  S
C223        C224   1.400       .  A
C223        C228   1.408       .  A
C223        H230   1.083       .  S
C224        C225   1.413   1_655  A
C225        C232   1.517       .  S
C225        C226   1.407       .  A
C226        C227   1.403       .  A
C226        H231   1.083       .  S
C227        C228   1.419   1_455  A
C228        C229   1.519       .  S
C229        F233   1.384       .  S
C229        F234   1.383       .  S
C229        F235   1.381       .  S
C232        F236   1.383       .  S
C232        F237   1.383       .  S
C232        F238   1.384       .  S
C239        C240   1.400       .  A
C239        C244   1.406       .  A
C239        H246   1.083       .  S
C240        C241   1.413   1_545  A
C241        C248   1.517       .  S
C241        C242   1.405       .  A
C242        C243   1.401       .  A
C242        H247   1.083       .  S
C243        C244   1.417   1_565  A
C244        C245   1.518       .  S
C245        F249   1.384       .  S
C245        F250   1.382       .  S
C245        F251   1.383       .  S
C248        F252   1.383       .  S
C248        F253   1.383       .  S
C248        F254   1.384       .  S
C255        C256   1.402   1_565  A
C255        C260   1.406       .  A
C255        H262   1.083       .  S
C256        C257   1.414       .  A
C257        C264   1.517       .  S
C257        C258   1.407       .  A
C258        C259   1.402   1_545  A
C258        H263   1.083       .  S
C259        C260   1.414       .  A
C260        C261   1.517       .  S
C261        F265   1.385       .  S
C261        F266   1.383       .  S
C261        F267   1.382       .  S
C264        F268   1.383       .  S
C264        F269   1.382       .  S
C264        F270   1.385       .  S
C271        C272   1.400       .  A
C271        C276   1.408       .  A
C271        H278   1.083       .  S
C272        C273   1.414   1_455  A
C273        C280   1.520       .  S
C273        C274   1.403       .  A
C274        C275   1.405       .  A
C274        H279   1.083       .  S
C275        C276   1.422   1_655  A
C276        C277   1.519       .  S
C277        F281   1.385       .  S
C277        F282   1.381       .  S
C277        F283   1.383       .  S
C280        F284   1.383       .  S
C280        F285   1.381       .  S
C280        F286   1.385       .  S
C287        C288   1.396       .  A
C287        C292   1.394       .  A
C287        H294   1.083       .  S
C288        C289   1.419       .  A
C289        C296   1.516       .  S
C289        C290   1.419       .  A
C290        C291   1.414       .  A
C290        H295   1.077       .  S
C291        C292   1.438       .  A
C292        C293   1.522   1_565  S
C293        F297   1.387       .  S
C293        F298   1.377       .  S
C293        F299   1.380       .  S
C296        F300   1.383       .  S
C296        F301   1.381       .  S
C296        F302   1.384       .  S
C303        C304   1.400       .  A
C303        C308   1.410       .  A
C303        H310   1.083       .  S
C304        C305   1.414       .  A
C305        C312   1.522       .  S
C305        C306   1.410       .  A
C306        C307   1.430       .  A
C306        H311   1.071   1_545  S
C307        C308   1.451       .  A
C308        C309   1.531   1_655  S
C309        F313   1.386       .  S
C309        F314   1.383       .  S
C309        F315   1.363       .  S
C312        F316   1.383   1_545  S
C312        F317   1.382       .  S
C312        F318   1.385   1_545  S
C319        C320   1.398       .  A
C319        C324   1.407       .  A
C319        H326   1.081       .  S
C320        C321   1.416       .  A
C321        C328   1.520       .  S
C321        C322   1.408       .  A
C322        C323   1.420       .  A
C322        H327   1.076   1_455  S
C323        C324   1.452       .  A
C324        C325   1.546   1_545  S
C325        F329   1.385       .  S
C325        F330   1.375       .  S
C325        F331   1.373       .  S
C328        F332   1.381       .  S
C328        F333   1.383   1_455  S
C328        F334   1.385   1_455  S
C335        C336   1.401       .  A
C335        C340   1.407       .  A
C335        H342   1.085       .  S
C336        C337   1.417       .  A
C337        C344   1.523   1_565  S
C337        C338   1.408       .  A
C338        C339   1.419       .  A
C338        H343   1.075   1_565  S
C339        C340   1.430       .  A
C340        C341   1.527       .  S
C341        F345   1.387       .  S
C341        F346   1.382       .  S
C341        F347   1.378       .  S
C344        F348   1.383       .  S
C344        F349   1.380   1_545  S
C344        F350   1.385       .  S
C351        C352   1.428       .  A
C351        C356   1.400       .  A
C351        H358   1.080   1_655  S
C352        C353   1.463       .  A
C353        C360   1.543       .  S
C353        C354   1.421       .  A
C354        C355   1.401       .  A
C354        H359   1.080       .  S
C355        C356   1.411       .  A
C356        C357   1.522       .  S
C357        F361   1.386   1_655  S
C357        F362   1.384       .  S
C357        F363   1.381   1_655  S
C360        F364   1.372   1_545  S
C360        F365   1.372       .  S
C360        F366   1.386       .  S
C367        C368   1.432       .  A
C367        C372   1.406       .  A
C367        H374   1.070   1_565  S
C368        C369   1.451       .  A
C369        C376   1.525   1_455  S
C369        C370   1.408       .  A
C370        C371   1.397       .  A
C370        H375   1.085       .  S
C371        C372   1.413       .  A
C372        C373   1.525       .  S
C373        F377   1.385   1_565  S
C373        F378   1.381       .  S
C373        F379   1.383   1_565  S
C376        F380   1.384       .  S
C376        F381   1.362       .  S
C376        F382   1.384       .  S
C383        C384   1.421       .  A
C383        C388   1.410       .  A
C383        H390   1.066       .  S
C384        C385   1.449       .  A
C385        C392   1.532   1_565  S
C385        C386   1.409       .  A
C386        C387   1.405       .  A
C386        H391   1.075       .  S
C387        C388   1.421       .  A
C388        C389   1.521       .  S
C389        F393   1.385       .  S
C389        F394   1.383   1_655  S
C389        F395   1.383       .  S
C392        F396   1.386       .  S
C392        F397   1.370       .  S
C392        F398   1.381       .  S
C399        C400   1.423       .  A
C399        C404   1.414       .  A
C399        H406   1.071       .  S
C400        C401   1.446       .  A
C401        C408   1.530   1_545  S
C401        C402   1.404       .  A
C402        C403   1.400       .  A
C402        H407   1.083       .  S
C403        C404   1.421       .  A
C404        C405   1.518       .  S
C405        F409   1.385       .  S
C405        F410   1.382       .  S
C405        F411   1.383       .  S
C408        F412   1.383       .  S
C408        F413   1.370       .  S
C408        F414   1.385       .  S
