geometry optimzed in LAMMPS
_audit_creation_date              2020-12-01 
_audit_creation_method            'lammps2cif' 
_symmetry_space_group_name_H-M    'P1' 
_symmetry_Int_Tables_number       1 
_symmetry_cell_setting            triclinic 
loop_ 
_symmetry_equiv_pos_as_xyz 
  x,y,z 
_cell_length_a                    87.96768793 
_cell_length_b                    88.03179505887823 
_cell_length_c                    117.25283339985283 
_cell_angle_alpha                 89.96767470965003 
_cell_angle_beta                  89.99705974937928 
_cell_angle_gamma                 119.86980343984854 
loop_ 
_atom_site_label 
_atom_site_type_symbol 
_atom_site_fract_x 
_atom_site_fract_y 
_atom_site_fract_z 
_atom_site_charge 
N1          N  0.36221921  0.39302115  0.99064669    -0.27300
N2          N  0.35638335  0.37601904  0.98988330    -0.35200
C3          C  0.34161637  0.36854064  0.98364763     0.01000
C4          C  0.33785005  0.38142492  0.98044769     0.07000
C5          C  0.35116419  0.39679690  0.98504663    -0.06100
H6          H  0.33385703  0.35464917  0.98193442     0.07700
H7          H  0.35276974  0.40976928  0.98432101     0.08900
Cu8        Cu  0.36761111  0.36342748  0.99833829     0.44200
Cu9        Cu  0.38522157  0.41016228  0.99897772     0.42000
Cu10       Cu  0.40624667  0.39019437  0.01502852     0.43900
N11         N  0.37827109  0.35325070  0.00966468    -0.34700
N12         N  0.39209380  0.36300588  0.01609733    -0.29000
C13         C  0.39483347  0.35248126  0.02310169    -0.05100
C14         C  0.38215209  0.33524082  0.02092409     0.07200
C15         C  0.37191657  0.33629488  0.01232720     0.01000
H16         H  0.40528519  0.35707658  0.02931676     0.08600
H17         H  0.36031825  0.32558590  0.00853376     0.07700
N18         N  0.41787404  0.41686894  0.01165325    -0.36200
N19         N  0.41010543  0.42405532  0.00593907    -0.28300
C20         C  0.42142709  0.44124254  0.00461741    -0.03600
C21         C  0.43720978  0.44519050  0.00971543     0.05000
C22         C  0.43437940  0.42934306  0.01412096     0.03100
H23         H  0.41840140  0.45003299  0.99999384     0.08200
H24         H  0.44377373  0.42682967  0.01842779     0.07100
N25         N  0.69264648  0.62994835  0.65739504    -0.27300
N26         N  0.68521809  0.63974820  0.65849334    -0.35200
C27         C  0.67052766  0.63281326  0.65214886     0.01000
C28         C  0.66849376  0.61782756  0.64688260     0.07000
C29         C  0.68275084  0.61640201  0.65044001    -0.06100
H30         H  0.66177042  0.63809561  0.65161484     0.07700
H31         H  0.68583141  0.60636992  0.64805216     0.08900
Cu32       Cu  0.69494817  0.66175094  0.66891477     0.44200
Cu33       Cu  0.71621252  0.63572180  0.66508935     0.42000
Cu34       Cu  0.73525860  0.67325764  0.68386590     0.43900
N35         N  0.70678407  0.68242496  0.68041034    -0.34700
N36         N  0.72129664  0.68631483  0.68603864    -0.29000
C37         C  0.72530289  0.69989135  0.69303589    -0.05100
C38         C  0.71277861  0.70492191  0.69172759     0.07200
C39         C  0.70125208  0.69355245  0.68362133     0.01000
H40         H  0.73661771  0.70574912  0.69859155     0.08600
H41         H  0.68950696  0.69314642  0.68045037     0.07700
N42         N  0.74757307  0.65917433  0.67959093    -0.36200
N43         N  0.74062424  0.64544680  0.67274446    -0.28300
C44         C  0.75231279  0.64004302  0.67109251    -0.03600
C45         C  0.76747930  0.65092642  0.67716934     0.05000
C46         C  0.76385618  0.66287430  0.68248037     0.03100
H47         H  0.75005730  0.62936108  0.66550285     0.08200
H48         H  0.77253516  0.67385707  0.68777151     0.07100
N49         N  0.72478305  0.02701508  0.68372456    -0.27300
N50         N  0.70914064  0.01647887  0.67937082    -0.35200
C51         C  0.70359525  0.00006743  0.68302802     0.01000
C52         C  0.71633982  0.00031628  0.69009855     0.07000
C53         C  0.72957423  0.01765885  0.69036446    -0.06100
H54         H  0.69107671  0.98885435  0.68084345     0.07700
H55         H  0.74189053  0.02307274  0.69490351     0.08900
Cu56       Cu  0.69613925  0.02516157  0.66881485     0.44200
Cu57       Cu  0.73901242  0.05342175  0.67998878     0.42000
Cu58       Cu  0.72053922  0.07087327  0.65962652     0.43900
N59         N  0.68589345  0.03689904  0.65839574    -0.34700
N60         N  0.69475239  0.05332872  0.65484237    -0.29000
C61         C  0.68424451  0.05655846  0.64814449    -0.05100
C62         C  0.66794090  0.04148501  0.64751803     0.07200
C63         C  0.66953660  0.02932175  0.65414853     0.01000
H64         H  0.68812453  0.06908523  0.64420994     0.08600
H65         H  0.65961385  0.01585314  0.65570363     0.07700
N66         N  0.74560933  0.08543254  0.66658015    -0.36200
N67         N  0.75198605  0.07894882  0.67414890    -0.28300
C68         C  0.76831017  0.09128957  0.67699664    -0.03600
C69         C  0.77262194  0.10641261  0.67093427     0.05000
C70         C  0.75785345  0.10217773  0.66438940     0.03100
H71         H  0.77655867  0.08914435  0.68284760     0.08200
H72         H  0.75608861  0.11059370  0.65846507     0.07100
N73         N  0.69773654  0.87593408  0.74655720    -0.27300
N74         N  0.69756149  0.86840175  0.73677462    -0.35200
C75         C  0.69962705  0.87940576  0.72818724     0.01000
C76         C  0.70136349  0.89467182  0.73280875     0.07000
C77         C  0.70010052  0.89198515  0.74448294    -0.06100
H78         H  0.70033906  0.87667996  0.71926843     0.07700
H79         H  0.70074344  0.90096943  0.75100862     0.08900
Cu80       Cu  0.69588478  0.84409039  0.73567266     0.44200
Cu81       Cu  0.69457500  0.86403860  0.76226709     0.42000
Cu82       Cu  0.69256356  0.82212546  0.76269846     0.43900
N83         N  0.69698924  0.82116126  0.73714108    -0.34700
N84         N  0.69629665  0.81347270  0.74697467    -0.29000
C85         C  0.69832102  0.79952908  0.74500433    -0.05100
C86         C  0.70027214  0.79827965  0.73336485     0.07200
C87         C  0.69930743  0.81221684  0.72865994     0.01000
H88         H  0.69820804  0.79084977  0.75157958     0.08600
H89         H  0.70059978  0.81586215  0.71975150     0.07700
N90         N  0.68859748  0.83359281  0.77707881    -0.36200
N91         N  0.68949127  0.84901267  0.77683498    -0.28300
C92         C  0.68598349  0.85275192  0.78727281    -0.03600
C93         C  0.68265024  0.83900647  0.79456385     0.05000
C94         C  0.68447202  0.82708720  0.78773603     0.03100
H95         H  0.68577312  0.86462297  0.78928759     0.08200
H96         H  0.68270669  0.81448212  0.79022377     0.07100
N97         N  0.63094946  0.84706365  0.92497041    -0.27300
N98         N  0.63071250  0.83964383  0.93481809    -0.35200
C99         C  0.62881207  0.84882929  0.94330897     0.01000
C100        C  0.62772656  0.86270665  0.93859333     0.07000
C101        C  0.62909350  0.86110950  0.92692412    -0.06100
H102        H  0.62806542  0.84547826  0.95224627     0.07700
H103        H  0.62911912  0.86971241  0.92032503     0.08900
Cu104      Cu  0.63245877  0.81706092  0.93622688     0.44200
Cu105      Cu  0.63460174  0.83816651  0.90939611     0.42000
Cu106      Cu  0.63601657  0.79767806  0.90979333     0.43900
N107        N  0.63162770  0.79311451  0.93531916    -0.34700
N108        N  0.63224395  0.78571617  0.92565096    -0.29000
C109        C  0.63012046  0.76978958  0.92793913    -0.05100
C110        C  0.62821164  0.76707511  0.93962549     0.07200
C111        C  0.62930896  0.78219339  0.94401684     0.01000
H112        H  0.63004275  0.76088618  0.92155389     0.08600
H113        H  0.62794229  0.78485239  0.95285048     0.07700
N114        N  0.64099910  0.81317206  0.89534285    -0.36200
N115        N  0.64041976  0.82787960  0.89522892    -0.28300
C116        C  0.64476651  0.83502623  0.88476613    -0.03600
C117        C  0.64830711  0.82434054  0.87786157     0.05000
C118        C  0.64573443  0.81057425  0.88493380     0.03100
H119        H  0.64545391  0.84724683  0.88247803     0.08200
H120        H  0.64729059  0.79948945  0.88277870     0.07100
N121        N  0.02118410  0.63710182  0.97689127    -0.27300
N122        N  0.01604586  0.64719873  0.98198248    -0.35200
C123        C  0.02661936  0.66389961  0.97869476     0.01000
C124        C  0.03886921  0.66435410  0.97105649     0.07000
C125        C  0.03495549  0.64709324  0.97008309    -0.06100
H126        H  0.02544118  0.67491486  0.98163571     0.07700
H127        H  0.04200552  0.64223664  0.96511970     0.08900
Cu128      Cu  0.99487462  0.63797942  0.99322964     0.44200
Cu129      Cu  0.01039143  0.61046878  0.98028042     0.42000
Cu130      Cu  0.97665925  0.59323069  0.00215631     0.43900
N131        N  0.97340144  0.62552043  0.00418807    -0.34700
N132        N  0.96704513  0.60918335  0.00766790    -0.29000
C133        C  0.95342940  0.60490169  0.01472066    -0.05100
C134        C  0.95091842  0.61918774  0.01568800     0.07200
C135        C  0.96384137  0.63202033  0.00885692     0.01000
H136        H  0.94569728  0.59217120  0.01864235     0.08600
H137        H  0.96624509  0.64518223  0.00745446     0.07700
N138        N  0.98708566  0.57904062  0.99478802    -0.36200
N139        N  0.99918586  0.58509447  0.98672399    -0.28300
C140        C  0.00293450  0.57249172  0.98389903    -0.03600
C141        C  0.99266074  0.55772793  0.99049876     0.05000
C142        C  0.98279787  0.56249330  0.99729352     0.03100
H143        H  0.01246436  0.57406066  0.97750352     0.08200
H144        H  0.97324636  0.55465146  0.00369790     0.07100
N145        N  0.60287672  0.63566134  0.99104851    -0.27300
N146        N  0.61937913  0.64560967  0.99419941    -0.35200
C147        C  0.62540256  0.66186433  0.99003573     0.01000
C148        C  0.61209052  0.66205552  0.98383662     0.07000
C149        C  0.59802075  0.64518657  0.98462433    -0.06100
H150        H  0.63860008  0.67264044  0.99123010     0.07700
H151        H  0.58512579  0.64025657  0.98095035     0.08900
Cu152      Cu  0.63279592  0.63612395  0.00371331     0.44200
Cu153      Cu  0.58770039  0.60985879  0.99612979     0.42000
Cu154      Cu  0.60767946  0.59075521  0.01381387     0.43900
N155        N  0.64315129  0.62375818  0.01349890    -0.34700
N156        N  0.63397564  0.60757366  0.01746793    -0.29000
C157        C  0.64444880  0.60410528  0.02401585    -0.05100
C158        C  0.66104249  0.61870512  0.02403139     0.07200
C159        C  0.65975993  0.63086805  0.01723949     0.01000
H160        H  0.64032369  0.59180195  0.02834729     0.08600
H161        H  0.67004327  0.64407794  0.01536894     0.07700
N162        N  0.58144983  0.57754604  0.00906656    -0.36200
N163        N  0.57433517  0.58473584  0.00269644    -0.28300
C164        C  0.55724432  0.57322219  0.00127161    -0.03600
C165        C  0.55323280  0.55786644  0.00697487     0.05000
C166        C  0.56899516  0.56114599  0.01183634     0.03100
H167        H  0.54846213  0.57603252  0.99645101     0.08200
H168        H  0.57134335  0.55232384  0.01698083     0.07100
N169        N  0.64120618  0.69717173  0.34939462    -0.27300
N170        N  0.64634741  0.68721661  0.34413199    -0.35200
C171        C  0.63603343  0.67048398  0.34739193     0.01000
C172        C  0.62381816  0.66980148  0.35514058     0.07000
C173        C  0.62754648  0.68701216  0.35621751    -0.06100
H174        H  0.63751453  0.65965943  0.34442663     0.07700
H175        H  0.62066756  0.69179876  0.36141968     0.08900
Cu176      Cu  0.66742881  0.69661316  0.33296714     0.44200
Cu177      Cu  0.65270151  0.72405698  0.34682915     0.42000
Cu178      Cu  0.69115675  0.74314217  0.32856236     0.43900
N179        N  0.68997452  0.70920921  0.32310481    -0.34700
N180        N  0.69889091  0.72637095  0.32169918    -0.29000
C181        C  0.71322666  0.73062178  0.31538458    -0.05100
C182        C  0.71336395  0.71537183  0.31262277     0.07200
C183        C  0.69835002  0.70204922  0.31766466     0.01000
H184        H  0.72282731  0.74387355  0.31301491     0.08600
H185        H  0.69406858  0.68820583  0.31769413     0.07700
N186        N  0.68035462  0.75722378  0.33557435    -0.36200
N187        N  0.66632521  0.75036356  0.34218058    -0.28300
C188        C  0.66243646  0.76290707  0.34484794    -0.03600
C189        C  0.67461570  0.77849093  0.33966038     0.05000
C190        C  0.68577047  0.77426276  0.33386997     0.03100
H191        H  0.65131939  0.76064234  0.35001099     0.08200
H192        H  0.69689575  0.78277234  0.32861512     0.07100
N193        N  0.88509156  0.70193691  0.25590671    -0.27300
N194        N  0.87891924  0.70370767  0.26580560    -0.35200
C195        C  0.89071712  0.70648961  0.27403199     0.01000
C196        C  0.90514370  0.70675547  0.26906988     0.07000
C197        C  0.90112947  0.70390351  0.25755921    -0.06100
H198        H  0.88888577  0.70811976  0.28298008     0.07700
H199        H  0.90896196  0.70256759  0.25094640     0.08900
Cu200      Cu  0.85459423  0.70203127  0.26772963     0.44200
Cu201      Cu  0.87062724  0.69495204  0.24079625     0.42000
Cu202      Cu  0.82577664  0.68592069  0.24325937     0.43900
N203        N  0.82967386  0.69926088  0.26738649    -0.34700
N204        N  0.81885453  0.69259640  0.25862706    -0.29000
C205        C  0.80371619  0.69217860  0.26113102    -0.05100
C206        C  0.80518021  0.69919313  0.27190201     0.07200
C207        C  0.82183056  0.70360712  0.27560036     0.01000
H208        H  0.79269398  0.68768396  0.25537386     0.08600
H209        H  0.82778192  0.70948388  0.28368223     0.07700
N210        N  0.83629101  0.68217685  0.22834884    -0.36200
N211        N  0.85263901  0.68549960  0.22738558    -0.28300
C212        C  0.85518184  0.68162074  0.21668948    -0.03600
C213        C  0.83970863  0.67563393  0.21056561     0.05000
C214        C  0.82806081  0.67622393  0.21829974     0.03100
H215        H  0.86747902  0.68321994  0.21360071     0.08200
H216        H  0.81450004  0.67245328  0.21681508     0.07100
N217        N  0.84458830  0.62813772  0.07849096    -0.27300
N218        N  0.83762648  0.63049586  0.06912624    -0.35200
C219        C  0.84660749  0.63001843  0.06000072     0.01000
C220        C  0.85983257  0.62704762  0.06369415     0.07000
C221        C  0.85811661  0.62583394  0.07548675    -0.06100
H222        H  0.84354667  0.63150409  0.05127855     0.07700
H223        H  0.86639428  0.62392295  0.08145591     0.08900
Cu224      Cu  0.81569874  0.63342616  0.06875080     0.44200
Cu225      Cu  0.83582994  0.62939211  0.09489701     0.42000
Cu226      Cu  0.79565966  0.63220923  0.09531251     0.43900
N227        N  0.79190376  0.63275248  0.06996921    -0.34700
N228        N  0.78415576  0.63178922  0.07979658    -0.29000
C229        C  0.76855963  0.63065598  0.07777671    -0.05100
C230        C  0.76641038  0.63098361  0.06606712     0.07200
C231        C  0.78153603  0.63233547  0.06142036     0.01000
H232        H  0.75954786  0.62977466  0.08436448     0.08600
H233        H  0.78465261  0.63255822  0.05247762     0.07700
N234        N  0.81052839  0.63462105  0.10964294    -0.36200
N235        N  0.82505270  0.63365258  0.10966869    -0.28300
C236        C  0.83164504  0.63681656  0.12034779    -0.03600
C237        C  0.82077057  0.63998594  0.12739360     0.05000
C238        C  0.80751690  0.63839184  0.12020744     0.03100
H239        H  0.84372840  0.63722569  0.12269387     0.08200
H240        H  0.79654539  0.64015042  0.12235162     0.07100
N241        N  0.03555730  0.71872327  0.31512767    -0.27300
N242        N  0.02498609  0.70290830  0.31925969    -0.35200
C243        C  0.00860787  0.69740133  0.31542095     0.01000
C244        C  0.00893370  0.71031587  0.30844148     0.07000
C245        C  0.02628811  0.72359729  0.30845489    -0.06100
H246        H  0.99731554  0.68489809  0.31753322     0.07700
H247        H  0.03172290  0.73614661  0.30420804     0.08900
Cu248      Cu  0.03363634  0.68989878  0.33007039     0.44200
Cu249      Cu  0.06185864  0.73359904  0.31942799     0.42000
Cu250      Cu  0.07897514  0.71514645  0.33993016     0.43900
N251        N  0.04533835  0.68024274  0.34122400    -0.34700
N252        N  0.06159315  0.68955118  0.34505551    -0.29000
C253        C  0.06469731  0.67976320  0.35251430    -0.05100
C254        C  0.04975835  0.66342326  0.35335201     0.07200
C255        C  0.03779580  0.66422348  0.34602909     0.01000
H256        H  0.07699583  0.68418987  0.35692637     0.08600
H257        H  0.02441223  0.65404274  0.34450828     0.07700
N258        N  0.09351657  0.74037487  0.33330602    -0.36200
N259        N  0.08719510  0.74702956  0.32582559    -0.28300
C260        C  0.09959768  0.76355074  0.32336561    -0.03600
C261        C  0.11458889  0.76761274  0.32956741     0.05000
C262        C  0.11017249  0.75250720  0.33577041     0.03100
H263        H  0.09774790  0.77189567  0.31743172     0.08200
H264        H  0.11833019  0.75047670  0.34176713     0.07100
N265        N  0.60535824  0.97197209  0.98814730    -0.27300
N266        N  0.61967380  0.97585682  0.99401527    -0.35200
C267        C  0.62560553  0.96507545  0.99074187     0.01000
C268        C  0.61457780  0.95403030  0.98231909     0.07000
C269        C  0.60188607  0.95878900  0.98093902    -0.06100
H270        H  0.63751499  0.96579436  0.99387297     0.07700
H271        H  0.59101364  0.95325442  0.97501958     0.08900
Cu272      Cu  0.63157934  0.99709391  0.00507443     0.44200
Cu273      Cu  0.59146846  0.98513154  0.98960170     0.42000
Cu274      Cu  0.61239857  0.02560133  0.00480607     0.43900
N275        N  0.64267892  0.02138639  0.01305925    -0.34700
N276        N  0.63602927  0.03193236  0.01248210    -0.29000
C277        C  0.64690563  0.04707079  0.01774547    -0.05100
C278        C  0.66108427  0.04604899  0.02191648     0.07200
C279        C  0.65792813  0.02953258  0.01882334     0.01000
H280        H  0.64456495  0.05798169  0.01851560     0.08600
H281        H  0.66636403  0.02405080  0.02030177     0.07700
N282        N  0.58739685  0.01503882  0.99808773    -0.36200
N283        N  0.57964616  0.00000298  0.99255326    -0.28300
C284        C  0.56307496  0.99579217  0.99014980    -0.03600
C285        C  0.56010862  0.00879481  0.99443704     0.05000
C286        C  0.57596079  0.02083830  0.99937266     0.03100
H287        H  0.55379219  0.98379042  0.98594202     0.08200
H288        H  0.57884276  0.03255960  0.00403747     0.07100
N289        N  0.54331192  0.51888262  0.58772139    -0.27300
N290        N  0.54030826  0.50732335  0.59586253    -0.35200
C291        C  0.55319128  0.51465767  0.60367036     0.01000
C292        C  0.56484565  0.53171527  0.60033548     0.07000
C293        C  0.55809801  0.53390380  0.59017507    -0.06100
H294        H  0.55374352  0.50816849  0.61136649     0.07700
H295        H  0.56355898  0.54551509  0.58488870     0.08900
Cu296      Cu  0.51817982  0.48249067  0.59638798     0.44200
Cu297      Cu  0.52724498  0.51367755  0.57359099     0.42000
Cu298      Cu  0.48648031  0.47211323  0.57382258     0.43900
N299        N  0.49362060  0.45997101  0.59620313    -0.34700
N300        N  0.48176237  0.45653935  0.58819164    -0.29000
C301        C  0.46679848  0.44193516  0.59106709    -0.05100
C302        C  0.46939657  0.43575639  0.60133910     0.07200
C303        C  0.48658946  0.44750528  0.60430398     0.01000
H304        H  0.45488703  0.43629076  0.58606671     0.08600
H305        H  0.49328119  0.44741791  0.61202371     0.07700
N306        N  0.49488654  0.48943500  0.56014776    -0.36200
N307        N  0.50973873  0.50455285  0.56004980    -0.28300
C308        C  0.51176515  0.51209682  0.54976128    -0.03600
C309        C  0.49748807  0.50120841  0.54300040     0.05000
C310        C  0.48705254  0.48698283  0.54993492     0.03100
H311        H  0.52301382  0.52445686  0.54736635     0.08200
H312        H  0.47496393  0.47533583  0.54763245     0.07100
N313        N  0.51241350  0.54752267  0.41033850    -0.27300
N314        N  0.50570494  0.53916825  0.40065876    -0.35200
C315        C  0.51552148  0.54914865  0.39192679     0.01000
C316        C  0.52900266  0.56463934  0.39630975     0.07000
C317        C  0.52659420  0.56311252  0.40802490    -0.06100
H318        H  0.51266942  0.54561164  0.38303225     0.07700
H319        H  0.53455488  0.57260416  0.41442701     0.08900
Cu320      Cu  0.48259605  0.51537218  0.39973881     0.44200
Cu321      Cu  0.50185820  0.53739878  0.42623327     0.42000
Cu322      Cu  0.45917012  0.49819054  0.42630658     0.43900
N323        N  0.45762341  0.49381708  0.40082727    -0.34700
N324        N  0.44882057  0.48789525  0.41046624    -0.29000
C325        C  0.43281788  0.47431396  0.40816061    -0.05100
C326        C  0.43149795  0.47148515  0.39648895     0.07200
C327        C  0.44750827  0.48411989  0.39213574     0.01000
H328        H  0.42301432  0.46691060  0.41455349     0.08600
H329        H  0.45146635  0.48637349  0.38327988     0.07700
N330        N  0.47356682  0.50955582  0.44092021    -0.36200
N331        N  0.48918810  0.52379813  0.44090629    -0.28300
C332        C  0.49541585  0.52713167  0.45162737    -0.03600
C333        C  0.48313297  0.51432867  0.45878967     0.05000
C334        C  0.46942427  0.50344293  0.45163800     0.03100
H335        H  0.50808720  0.53798876  0.45393597     0.08200
H336        H  0.45749968  0.49161066  0.45392657     0.07100
N337        N  0.93971437  0.29790828  0.65582036    -0.27300
N338        N  0.95565959  0.30757159  0.66004739    -0.35200
C339        C  0.96214494  0.32426216  0.65664534     0.01000
C340        C  0.94980711  0.32514790  0.64980295     0.07000
C341        C  0.93577116  0.30818020  0.64942092    -0.06100
H342        H  0.97501726  0.33490802  0.65884966     0.07700
H343        H  0.92344307  0.30370875  0.64503579     0.08900
Cu344      Cu  0.96818032  0.29772778  0.67003234     0.44200
Cu345      Cu  0.92366772  0.27146378  0.65963688     0.42000
Cu346      Cu  0.94152131  0.25367465  0.68032032     0.43900
N347        N  0.97775085  0.28518110  0.68022645    -0.34700
N348        N  0.96776369  0.26930739  0.68445583    -0.29000
C349        C  0.97755741  0.26525404  0.69123887    -0.05100
C350        C  0.99457362  0.27915106  0.69110856     0.07200
C351        C  0.99425303  0.29153255  0.68401030     0.01000
H352        H  0.97269898  0.25302022  0.69580972     0.08600
H353        H  0.00509110  0.30438912  0.68199472     0.07700
N354        N  0.91632752  0.23980966  0.67377493    -0.36200
N355        N  0.90986959  0.24608769  0.66611498    -0.28300
C356        C  0.89332746  0.23367521  0.66364654    -0.03600
C357        C  0.88911978  0.21883081  0.67007212     0.05000
C358        C  0.90410188  0.22329187  0.67638418     0.03100
H359        H  0.88492855  0.23550671  0.65774534     0.08200
H360        H  0.90612001  0.21514650  0.68239766     0.07100
N361        N  0.11973182  0.29782255  0.74676972    -0.27300
N362        N  0.12483201  0.29320333  0.73743510    -0.35200
C363        C  0.11289461  0.28961996  0.72917441     0.01000
C364        C  0.09957330  0.29195174  0.73357202     0.07000
C365        C  0.10434213  0.29708824  0.74476528    -0.06100
H366        H  0.11389153  0.28567003  0.72059927     0.07700
H367        H  0.09745889  0.30062719  0.75090665     0.08900
Cu368      Cu  0.14816034  0.29272168  0.73629856     0.44200
Cu369      Cu  0.13451257  0.30636958  0.76151355     0.42000
Cu370      Cu  0.17812594  0.31217349  0.76014187     0.43900
N371        N  0.17308923  0.29562821  0.73687577    -0.34700
N372        N  0.18427140  0.30340920  0.74533069    -0.29000
C373        C  0.19953360  0.30412165  0.74278668    -0.05100
C374        C  0.19782468  0.29622179  0.73228792     0.07200
C375        C  0.18085498  0.29093897  0.72881890     0.01000
H376        H  0.21095005  0.30976213  0.74825856     0.08600
H377        H  0.17473010  0.28454802  0.72088716     0.07700
N378        N  0.16811331  0.31813319  0.77442732    -0.36200
N379        N  0.15211922  0.31587734  0.77489937    -0.28300
C380        C  0.14928785  0.32016203  0.78536410    -0.03600
C381        C  0.16421648  0.32533352  0.79190694     0.05000
C382        C  0.17589523  0.32389807  0.78461976     0.03100
H383        H  0.13708777  0.31926884  0.78798419     0.08200
H384        H  0.18890745  0.32630521  0.78662189     0.07100
N385        N  0.21284850  0.36210002  0.92416048    -0.27300
N386        N  0.20760269  0.36635383  0.93357405    -0.35200
C387        C  0.21930646  0.36951388  0.94190228     0.01000
C388        C  0.23252605  0.36700158  0.93753658     0.07000
C389        C  0.22796004  0.36228852  0.92625077    -0.06100
H390        H  0.21809450  0.37311023  0.95053428     0.07700
H391        H  0.23517752  0.35944336  0.91995130     0.08900
Cu392      Cu  0.18468912  0.36745296  0.93463115     0.44200
Cu393      Cu  0.19946166  0.35678468  0.90887367     0.42000
Cu394      Cu  0.16036061  0.36090683  0.90833979     0.43900
N395        N  0.16170354  0.36842914  0.93356057    -0.34700
N396        N  0.15310511  0.36663817  0.92394870    -0.29000
C397        C  0.13910783  0.36849212  0.92618704    -0.05100
C398        C  0.13877570  0.37135641  0.93778392     0.07200
C399        C  0.15328602  0.37118768  0.94217713     0.01000
H400        H  0.12963933  0.36740139  0.91987958     0.08600
H401        H  0.15754718  0.37311205  0.95097558     0.07700
N402        N  0.17045032  0.35482033  0.89411235    -0.36200
N403        N  0.18473992  0.35344771  0.89438373    -0.28300
C404        C  0.18822093  0.35009692  0.88382684    -0.03600
C405        C  0.17549296  0.34924824  0.87648421     0.05000
C406        C  0.16438411  0.35223914  0.88333803     0.03100
H407        H  0.19928076  0.34845683  0.88169786     0.08200
H408        H  0.15299590  0.35296972  0.88066923     0.07100
N409        N  0.36965725  0.30799609  0.65794062    -0.27300
N410        N  0.36177022  0.31677713  0.66107020    -0.35200
C411        C  0.37022138  0.33286167  0.65638162     0.01000
C412        C  0.38424318  0.33440194  0.65007697     0.07000
C413        C  0.38352718  0.31839120  0.65131535    -0.06100
H414        H  0.36629395  0.34264115  0.65737484     0.07700
H415        H  0.39198219  0.31432616  0.64727902     0.08900
Cu416      Cu  0.33931156  0.30618536  0.67111483     0.44200
Cu417      Cu  0.35990154  0.28167597  0.66191150     0.42000
Cu418      Cu  0.31748501  0.25931128  0.67622551     0.43900
N419        N  0.31601917  0.29248803  0.68019588    -0.34700
N420        N  0.30769304  0.27531348  0.68167358    -0.29000
C421        C  0.29276289  0.27049815  0.68747902    -0.05100
C422        C  0.29171450  0.28537069  0.68989777     0.07200
C423        C  0.30673512  0.29906568  0.68515810     0.01000
H424        H  0.28353012  0.25717442  0.68995261     0.08600
H425        H  0.31051013  0.31278980  0.68512923     0.07700
N426        N  0.33116600  0.24685536  0.67096304    -0.36200
N427        N  0.34662887  0.25507093  0.66588516    -0.28300
C428        C  0.35195597  0.24346919  0.66364984    -0.03600
C429        C  0.33928444  0.22703565  0.66749431     0.05000
C430        C  0.32628188  0.22979192  0.67209447     0.03100
H431        H  0.36414273  0.24685469  0.65939842     0.08200
H432        H  0.31413766  0.22017302  0.67602018     0.07100
N433        N  0.30485547  0.18150927  0.25858648    -0.27300
N434        N  0.29816744  0.17053230  0.26726577    -0.35200
C435        C  0.29392384  0.17820293  0.27561921     0.01000
C436        C  0.29826554  0.19490407  0.27210120     0.07000
C437        C  0.30521826  0.19655904  0.26125841    -0.06100
H438        H  0.28825839  0.17209043  0.28371022     0.07700
H439        H  0.30985939  0.20772780  0.25561744     0.08900
Cu440      Cu  0.29517872  0.14564745  0.26754446     0.44200
Cu441      Cu  0.31244220  0.17516683  0.24332848     0.42000
Cu442      Cu  0.30403584  0.13035594  0.24129092     0.43900
N443        N  0.29329277  0.12133421  0.26583834    -0.34700
N444        N  0.29583392  0.11538247  0.25609494    -0.29000
C445        C  0.29383292  0.09936766  0.25783680    -0.05100
C446        C  0.29013057  0.09517713  0.26927050     0.07200
C447        C  0.28991267  0.10942837  0.27407619     0.01000
H448        H  0.29580251  0.09173338  0.25138468     0.08600
H449        H  0.28768181  0.11113099  0.28293995     0.07700
N450        N  0.31454210  0.14858392  0.22814149    -0.36200
N451        N  0.31769073  0.16488549  0.22884922    -0.28300
C452        C  0.32429712  0.17303276  0.21883683    -0.03600
C453        C  0.32544162  0.16132698  0.21143193     0.05000
C454        C  0.31912627  0.14596438  0.21770139     0.03100
H455        H  0.32791855  0.18648696  0.21711303     0.08200
H456        H  0.31759566  0.13359634  0.21486215     0.07100
N457        N  0.36021442  0.20986255  0.07811918    -0.27300
N458        N  0.35765851  0.20093462  0.06856175    -0.35200
C459        C  0.35912138  0.21122335  0.05965326     0.01000
C460        C  0.36286141  0.22750806  0.06374368     0.07000
C461        C  0.36343843  0.22609369  0.07551402    -0.06100
H462        H  0.35796986  0.20720816  0.05083321     0.07700
H463        H  0.36591969  0.23607195  0.08178295     0.08900
Cu464      Cu  0.35362839  0.17561598  0.06784004     0.44200
Cu465      Cu  0.35936710  0.19975821  0.09435879     0.42000
Cu466      Cu  0.35789139  0.15802321  0.09457168     0.43900
N467        N  0.35442430  0.15250922  0.06917159    -0.34700
N468        N  0.35678350  0.14649359  0.07894610    -0.29000
C469        C  0.35871825  0.13252166  0.07687984    -0.05100
C470        C  0.35741052  0.12950437  0.06522621     0.07200
C471        C  0.35460068  0.14240798  0.06062647     0.01000
H472        H  0.36117794  0.12529086  0.08338313     0.08600
H473        H  0.35372725  0.14488529  0.05167976     0.07700
N474        N  0.35701826  0.17075848  0.10922021    -0.36200
N475        N  0.35741819  0.18595640  0.10927466    -0.28300
C476        C  0.35572509  0.18999977  0.12011759    -0.03600
C477        C  0.35416276  0.17666183  0.12726926     0.05000
C478        C  0.35508042  0.16474006  0.11995378     0.03100
H479        H  0.35538426  0.20167471  0.12253602     0.08200
H480        H  0.35399308  0.15231046  0.12213952     0.07100
N481        N  0.30433900  0.93891751  0.34614037    -0.27300
N482        N  0.31149903  0.95603386  0.34471565    -0.35200
C483        C  0.32724903  0.96410336  0.34986874     0.01000
C484        C  0.33028546  0.95147353  0.35464274     0.07000
C485        C  0.31550312  0.93564057  0.35207795    -0.06100
H486        H  0.33606160  0.97811886  0.34985684     0.07700
H487        H  0.31297198  0.92270373  0.35444279     0.08900
Cu488      Cu  0.30020567  0.96768086  0.33511316     0.44200
Cu489      Cu  0.27951616  0.92090557  0.34014330     0.42000
Cu490      Cu  0.25785736  0.93862715  0.32271557     0.43900
N491        N  0.28750054  0.97594577  0.32388858    -0.34700
N492        N  0.27218752  0.96523585  0.31915648    -0.29000
C493        C  0.26792159  0.97440003  0.31193104    -0.05100
C494        C  0.28113772  0.99177733  0.31216207     0.07200
C495        C  0.29331709  0.99224541  0.31987057     0.01000
H496        H  0.25599583  0.96880886  0.30694890     0.08600
H497        H  0.30569386  0.00352194  0.32221500     0.07700
N498        N  0.24625700  0.91252144  0.32756976    -0.36200
N499        N  0.25414012  0.90603408  0.33386217    -0.28300
C500        C  0.24302908  0.88885185  0.33555447    -0.03600
C501        C  0.22730009  0.88419016  0.33006115     0.05000
C502        C  0.22994137  0.89965250  0.32509281     0.03100
H503        H  0.24621607  0.88049971  0.34055791     0.08200
H504        H  0.22074641  0.90156310  0.32004598     0.07100
N505        N  0.36535415  0.97674285  0.98085246    -0.27300
N506        N  0.35659380  0.98507554  0.98282715    -0.35200
C507        C  0.34094682  0.97654207  0.97756110     0.01000
C508        C  0.33968057  0.96200124  0.97212561     0.07000
C509        C  0.35538294  0.96252168  0.97442610    -0.06100
H510        H  0.33093007  0.98023201  0.97806909     0.07700
H511        H  0.35924257  0.95319186  0.97169492     0.08900
Cu512      Cu  0.36553556  0.00664315  0.99352141     0.44200
Cu513      Cu  0.39042637  0.98505770  0.98708101     0.42000
Cu514      Cu  0.40777088  0.02184076  0.00671709     0.43900
N515        N  0.37607352  0.02636363  0.00569375    -0.34700
N516        N  0.39138307  0.03171926  0.01067954    -0.29000
C517        C  0.39409689  0.04409363  0.01842323    -0.05100
C518        C  0.37980989  0.04672993  0.01829575     0.07200
C519        C  0.36866539  0.03523269  0.01009265     0.01000
H520        H  0.40568214  0.05071434  0.02369831     0.08600
H521        H  0.35590849  0.03313994  0.00764617     0.07700
N522        N  0.42184796  0.01020018  0.00099660    -0.36200
N523        N  0.41558606  0.99679475  0.99388011    -0.28300
C524        C  0.42819441  0.99279120  0.99167772    -0.03600
C525        C  0.44319102  0.00425964  0.99768235     0.05000
C526        C  0.43857352  0.01508616  0.00350169     0.03100
H527        H  0.42659879  0.98253079  0.98589949     0.08200
H528        H  0.44672959  0.02584329  0.00911498     0.07100
N529        N  0.27171749  0.30014700  0.32330573    -0.27300
N530        N  0.28894957  0.31008613  0.32390835    -0.35200
C531        C  0.29642629  0.30188886  0.31861946     0.01000
C532        C  0.28324260  0.28592797  0.31461184     0.07000
C533        C  0.26776007  0.28527327  0.31775621    -0.06100
H534        H  0.31041130  0.30695933  0.31802876     0.07700
H535        H  0.25456143  0.27480885  0.31607391     0.08900
Cu536      Cu  0.30137336  0.33369544  0.33262195     0.44200
Cu537      Cu  0.25428084  0.30722418  0.32993305     0.42000
Cu538      Cu  0.27300733  0.34681607  0.34675349     0.43900
N539        N  0.31033381  0.35528244  0.34325080    -0.34700
N540        N  0.30000003  0.35984705  0.34861136    -0.29000
C541        C  0.30983822  0.37377620  0.35528370    -0.05100
C542        C  0.32723897  0.37825354  0.35403006     0.07200
C543        C  0.32702399  0.36623966  0.34631118     0.01000
H544        H  0.30465612  0.38013729  0.36063730     0.08600
H545        H  0.33810892  0.36517234  0.34336847     0.07700
N546        N  0.24653131  0.33196001  0.34305042    -0.36200
N547        N  0.23967142  0.31757467  0.33679888    -0.28300
C548        C  0.22242584  0.31163415  0.33546286    -0.03600
C549        C  0.21817759  0.32280006  0.34119323     0.05000
C550        C  0.23384069  0.33551350  0.34591727     0.03100
H551        H  0.21372169  0.30013835  0.33056182     0.08200
H552        H  0.23605211  0.34690452  0.35074097     0.07100
N553        N  0.78942841  0.15264608  0.07489612    -0.27300
N554        N  0.79322668  0.16287887  0.06585554    -0.35200
C555        C  0.78037965  0.15489943  0.05810753     0.01000
C556        C  0.76794735  0.13880221  0.06245293     0.07000
C557        C  0.77415448  0.13780463  0.07311196    -0.06100
H558        H  0.78027667  0.16031339  0.04984185     0.07700
H559        H  0.76794533  0.12720072  0.07919799     0.08900
Cu560      Cu  0.81592259  0.18699306  0.06435901     0.44200
Cu561      Cu  0.80492642  0.15959864  0.08933210     0.42000
Cu562      Cu  0.84614393  0.20034464  0.08822165     0.43900
N563        N  0.83990071  0.21001811  0.06473957    -0.34700
N564        N  0.85109109  0.21459611  0.07331204    -0.29000
C565        C  0.86549887  0.22989014  0.07081050    -0.05100
C566        C  0.86324426  0.23529446  0.06017032     0.07200
C567        C  0.84684009  0.22237717  0.05658479     0.01000
H568        H  0.87667673  0.23665834  0.07641244     0.08600
H569        H  0.84052191  0.22180265  0.04855407     0.07700
N570        N  0.83685059  0.18490863  0.10266121    -0.36200
N571        N  0.82175369  0.17008310  0.10304069    -0.28300
C572        C  0.81900204  0.16371206  0.11370379    -0.03600
C573        C  0.83305248  0.17509774  0.12045079     0.05000
C574        C  0.84414000  0.18838781  0.11309188     0.03100
H575        H  0.80743667  0.15175231  0.11628480     0.08200
H576        H  0.85638551  0.20001481  0.11515227     0.07100
N577        N  0.81836722  0.12166713  0.25189952    -0.27300
N578        N  0.82797962  0.12608213  0.26127521    -0.35200
C579        C  0.81909481  0.11425365  0.26946878     0.01000
C580        C  0.80303962  0.10189415  0.26507482     0.07000
C581        C  0.80299367  0.10704522  0.25392772    -0.06100
H582        H  0.82399536  0.11462960  0.27798733     0.07700
H583        H  0.79280366  0.10034068  0.24763105     0.08900
Cu584      Cu  0.85280409  0.14779867  0.26254685     0.44200
Cu585      Cu  0.82705712  0.13491626  0.23655581     0.42000
Cu586      Cu  0.87171625  0.17110381  0.23639091     0.43900
N587        N  0.87739736  0.16990461  0.26156142    -0.34700
N588        N  0.88453174  0.17806928  0.25189189    -0.29000
C589        C  0.90042726  0.19187711  0.25405620    -0.05100
C590        C  0.90336450  0.19256540  0.26568104     0.07200
C591        C  0.88847304  0.17844474  0.27018102     0.01000
H592        H  0.90888823  0.20112853  0.24768661     0.08600
H593        H  0.88581285  0.17470077  0.27906150     0.07700
N594        N  0.85568078  0.16294035  0.22220927    -0.36200
N595        N  0.83938195  0.14978679  0.22224144    -0.28300
C596        C  0.83263114  0.14796697  0.21172361    -0.03600
C597        C  0.84529607  0.16065453  0.20468252     0.05000
C598        C  0.85974317  0.16989031  0.21169907     0.03100
H599        H  0.81943500  0.13809572  0.20947145     0.08200
H600        H  0.87237184  0.18084539  0.20942368     0.07100
N601        N  0.02781917  0.39556128  0.98308492    -0.27300
N602        N  0.02233543  0.38047222  0.98841542    -0.35200
C603        C  0.03283161  0.37399120  0.98566165     0.01000
C604        C  0.04549664  0.38545672  0.97814606     0.07000
C605        C  0.04188330  0.39897903  0.97669500    -0.06100
H606        H  0.03104892  0.36159421  0.98868437     0.07700
H607        H  0.04900596  0.41052508  0.97144082     0.08900
Cu608      Cu  0.00022914  0.36862853  0.99862627     0.44200
Cu609      Cu  0.01599920  0.41088902  0.98481372     0.42000
Cu610      Cu  0.97558864  0.39091527  0.00121156     0.43900
N611        N  0.97648778  0.35818702  0.00708642    -0.34700
N612        N  0.96709942  0.36609712  0.00771477    -0.29000
C613        C  0.95211852  0.35569408  0.01335135    -0.05100
C614        C  0.95220455  0.34058669  0.01652157     0.07200
C615        C  0.96786646  0.34263605  0.01241768     0.01000
H616        H  0.94209566  0.35904650  0.01519579     0.08600
H617        H  0.97256533  0.33341540  0.01311372     0.07700
N618        N  0.98724550  0.41608991  0.99465335    -0.36200
N619        N  0.00191803  0.42349922  0.98866604    -0.28300
C620        C  0.00598150  0.44000477  0.98605368    -0.03600
C621        C  0.99324435  0.44318399  0.99064173     0.05000
C622        C  0.98160042  0.42760631  0.99601925     0.03100
H623        H  0.01755276  0.44905141  0.98133452     0.08200
H624        H  0.96990916  0.42473466  0.00073010     0.07100
N625        N  0.69883845  0.96895143  0.31514027    -0.27300
N626        N  0.68912630  0.97647331  0.31630580    -0.35200
C627        C  0.69682753  0.99185715  0.31073223     0.01000
C628        C  0.71223723  0.99428135  0.30592955     0.07000
C629        C  0.71313456  0.97952643  0.30892340    -0.06100
H630        H  0.69185582  0.00089033  0.31053361     0.07700
H631        H  0.72338943  0.97665763  0.30673330     0.08900
Cu632      Cu  0.66666873  0.96664039  0.32621743     0.44200
Cu633      Cu  0.69231179  0.94470487  0.32207882     0.42000
Cu634      Cu  0.65626518  0.92806947  0.34218803     0.43900
N635        N  0.64647609  0.95574694  0.33804215    -0.34700
N636        N  0.64295117  0.94175595  0.34413716    -0.29000
C637        C  0.62954107  0.93810226  0.35122327    -0.05100
C638        C  0.62428098  0.95039673  0.34951454     0.07200
C639        C  0.63537322  0.96138269  0.34106394     0.01000
H640        H  0.62394104  0.92714033  0.35706821     0.08600
H641        H  0.63560695  0.97281647  0.33747649     0.07700
N642        N  0.66925088  0.91480091  0.33765043    -0.36200
N643        N  0.68220531  0.92057201  0.33019286    -0.28300
C644        C  0.68687906  0.90826475  0.32878352    -0.03600
C645        C  0.67632277  0.89399812  0.33570465     0.05000
C646        C  0.66535282  0.89876560  0.34119682     0.03100
H647        H  0.69702896  0.90958645  0.32299012     0.08200
H648        H  0.65500974  0.89112286  0.34721119     0.07100
N649        N  0.46072518  0.97607632  0.40706769    -0.27300
N650        N  0.46493469  0.97068107  0.39769635    -0.35200
C651        C  0.45272929  0.96727867  0.38966177     0.01000
C652        C  0.44026318  0.97083697  0.39415100     0.07000
C653        C  0.44582674  0.97646744  0.40520076    -0.06100
H654        H  0.45288518  0.96246224  0.38120123     0.07700
H655        H  0.43918945  0.97995178  0.41156431     0.08900
Cu656      Cu  0.48674604  0.96757246  0.39650405     0.44200
Cu657      Cu  0.47467278  0.98099383  0.42222233     0.42000
Cu658      Cu  0.50884197  0.96893704  0.42290133     0.43900
N659        N  0.50836842  0.96412087  0.39744900    -0.34700
N660        N  0.51600003  0.96378921  0.40708753    -0.29000
C661        C  0.52955813  0.96127802  0.40466204    -0.05100
C662        C  0.53063504  0.96023922  0.39292112     0.07200
C663        C  0.51698970  0.96210608  0.38865034     0.01000
H664        H  0.53844969  0.96104716  0.41094292     0.08600
H665        H  0.51360147  0.96210110  0.37978019     0.07700
N666        N  0.50139248  0.97811812  0.43695735    -0.36200
N667        N  0.48925109  0.98278077  0.43663647    -0.28300
C668        C  0.48793751  0.98852623  0.44701242    -0.03600
C669        C  0.49984390  0.98749163  0.45429715     0.05000
C670        C  0.50813213  0.98081255  0.44755100     0.03100
H671        H  0.47895689  0.99317125  0.44901480     0.08200
H672        H  0.51831524  0.97804145  0.45009623     0.07100
N673        N  0.48646714  0.02684785  0.58581081    -0.27300
N674        N  0.49196534  0.02368303  0.59553915    -0.35200
C675        C  0.48241288  0.02468450  0.60414603     0.01000
C676        C  0.47026233  0.02875041  0.59969783     0.07000
C677        C  0.47327596  0.03004845  0.58800755    -0.06100
H678        H  0.48453751  0.02302460  0.61303459     0.07700
H679        H  0.46631611  0.03294970  0.58154527     0.08900
Cu680      Cu  0.51322151  0.01966247  0.59693369     0.44200
Cu681      Cu  0.49731003  0.02640819  0.57008131     0.42000
Cu682      Cu  0.53802471  0.02504973  0.57129034     0.43900
N683        N  0.53765143  0.02146410  0.59685605    -0.34700
N684        N  0.54719413  0.02448167  0.58753396    -0.29000
C685        C  0.56304931  0.02692434  0.59046721    -0.05100
C686        C  0.56343833  0.02517697  0.60219464     0.07200
C687        C  0.54706761  0.02163239  0.60594719     0.01000
H688        H  0.57351026  0.02974967  0.58449688     0.08600
H689        H  0.54259052  0.02005957  0.61468932     0.07700
N690        N  0.52455013  0.02297237  0.55627630    -0.36200
N691        N  0.50978864  0.02346557  0.55582981    -0.28300
C692        C  0.50396084  0.02070098  0.54500125    -0.03600
C693        C  0.51555459  0.01827211  0.53822993     0.05000
C694        C  0.52847796  0.01987214  0.54575185     0.03100
H695        H  0.49184625  0.02000321  0.54238948     0.08200
H696        H  0.53977242  0.01853104  0.54383716     0.07100
N697        N  0.96359718  0.44771063  0.59360297    -0.27300
N698        N  0.96327830  0.45563588  0.60309068    -0.35200
C699        C  0.96156171  0.44534978  0.61206140     0.01000
C700        C  0.96061935  0.43010639  0.60802287     0.07000
C701        C  0.96195501  0.43210575  0.59626797    -0.06100
H702        H  0.96074676  0.44862483  0.62084597     0.07700
H703        H  0.96194697  0.42299222  0.59008139     0.08900
Cu704      Cu  0.96446928  0.47973594  0.60322991     0.44200
Cu705      Cu  0.96640058  0.45860092  0.57747019     0.42000
Cu706      Cu  0.96555115  0.49950688  0.57586163     0.43900
N707        N  0.96385015  0.50281237  0.60132449    -0.34700
N708        N  0.96361287  0.50983558  0.59140212    -0.29000
C709        C  0.96255294  0.52438386  0.59330292    -0.05100
C710        C  0.96233326  0.52668273  0.60498991     0.07200
C711        C  0.96317077  0.51274687  0.60976735     0.01000
H712        H  0.96231549  0.53282560  0.58668081     0.08600
H713        H  0.96302978  0.50985004  0.61874747     0.07700
N714        N  0.96919724  0.48717023  0.56184008    -0.36200
N715        N  0.96959838  0.47238101  0.56241545    -0.28300
C716        C  0.97275369  0.46832693  0.55194078    -0.03600
C717        C  0.97444628  0.48118374  0.54432469     0.05000
C718        C  0.97208398  0.49289923  0.55099253     0.03100
H719        H  0.97386866  0.45689134  0.55009680     0.08200
H720        H  0.97273188  0.50494379  0.54828148     0.07100
N721        N  0.02831216  0.47924267  0.41357245    -0.27300
N722        N  0.02752413  0.48631765  0.40380519    -0.35200
C723        C  0.02881223  0.47695299  0.39515655     0.01000
C724        C  0.03059447  0.46335400  0.39969712     0.07000
C725        C  0.03024111  0.46529689  0.41141499    -0.06100
H726        H  0.02871848  0.48000695  0.38622939     0.07700
H727        H  0.03095381  0.45697973  0.41793628     0.08900
Cu728      Cu  0.02531034  0.50875986  0.40284913     0.44200
Cu729      Cu  0.02564875  0.48818382  0.42940823     0.42000
Cu730      Cu  0.02230940  0.52756529  0.42981236     0.43900
N731        N  0.02590047  0.53262934  0.40426354    -0.34700
N732        N  0.02561045  0.53988342  0.41408053    -0.29000
C733        C  0.02753278  0.55581308  0.41201804    -0.05100
C734        C  0.02887130  0.55862991  0.40033284     0.07200
C735        C  0.02772820  0.54361496  0.39571241     0.01000
H736        H  0.02780340  0.56463068  0.41854137     0.08600
H737        H  0.02871086  0.54107660  0.38679342     0.07700
N738        N  0.01781778  0.51163570  0.44402591    -0.36200
N739        N  0.01926104  0.49740184  0.44387441    -0.28300
C740        C  0.01482376  0.48965969  0.45417338    -0.03600
C741        C  0.01026168  0.49941509  0.46124362     0.05000
C742        C  0.01239636  0.51330601  0.45444486     0.03100
H743        H  0.01456803  0.47755651  0.45620221     0.08200
H744        H  0.00998750  0.52379900  0.45677460     0.07100
N745        N  0.96710408  0.69206688  0.68300481    -0.27300
N746        N  0.97633460  0.68489315  0.67940764    -0.35200
C747        C  0.99314193  0.69501053  0.68256560     0.01000
C748        C  0.99465396  0.70923948  0.68855649     0.07000
C749        C  0.97783625  0.70690489  0.68869642    -0.06100
H750        H  0.00343954  0.69203642  0.68076108     0.07700
H751        H  0.97373460  0.71547403  0.69250531     0.08900
Cu752      Cu  0.96592001  0.66169103  0.67036265     0.44200
Cu753      Cu  0.94043759  0.68138398  0.67957541     0.42000
Cu754      Cu  0.92180958  0.64333539  0.66044629     0.43900
N755        N  0.95384205  0.63958104  0.66023149    -0.34700
N756        N  0.93782103  0.63315495  0.65612739    -0.29000
C757        C  0.93424111  0.61948467  0.64929283    -0.05100
C758        C  0.94869816  0.61713348  0.64920170     0.07200
C759        C  0.96082906  0.63009363  0.65626907     0.01000
H760        H  0.92198154  0.61175462  0.64482269     0.08600
H761        H  0.97398311  0.63278605  0.65814352     0.07700
N762        N  0.90782369  0.65442823  0.66726490    -0.36200
N763        N  0.91433886  0.66799522  0.67426474    -0.28300
C764        C  0.90142077  0.67117596  0.67731236    -0.03600
C765        C  0.88596499  0.65899550  0.67199967     0.05000
C766        C  0.89067903  0.64864704  0.66568835     0.03100
H767        H  0.90321863  0.68150846  0.68308807     0.08200
H768        H  0.88231845  0.63753309  0.66039315     0.07100
N769        N  0.21130655  0.85430558  0.92012017    -0.27300
N770        N  0.20577388  0.84465858  0.92947512    -0.35200
C771        C  0.21719861  0.85320839  0.93797062     0.01000
C772        C  0.23037821  0.86908236  0.93377020     0.07000
C773        C  0.22615794  0.86932075  0.92243774    -0.06100
H774        H  0.21601119  0.84823787  0.94655901     0.07700
H775        H  0.23363997  0.87941724  0.91622309     0.08900
Cu776      Cu  0.18287770  0.82027467  0.93005723     0.44200
Cu777      Cu  0.19907415  0.84629491  0.90443202     0.42000
Cu778      Cu  0.15999039  0.80355564  0.90309352     0.43900
N779        N  0.15974441  0.79628562  0.92828772    -0.34700
N780        N  0.15168805  0.78999352  0.91844859    -0.29000
C781        C  0.13732242  0.77426638  0.92025675    -0.05100
C782        C  0.13611926  0.77049840  0.93181812     0.07200
C783        C  0.15058702  0.78480540  0.93661687     0.01000
H784        H  0.12815635  0.76640826  0.91367030     0.08600
H785        H  0.15426281  0.78674162  0.94552516     0.07700
N786        N  0.17035119  0.82029607  0.88917100    -0.36200
N787        N  0.18466181  0.83583248  0.88968218    -0.28300
C788        C  0.18778921  0.84345114  0.87935680    -0.03600
C789        C  0.17477244  0.83221746  0.87189533     0.05000
C790        C  0.16395173  0.81763853  0.87849181     0.03100
H791        H  0.19875565  0.85628875  0.87751622     0.08200
H792        H  0.15218490  0.80594159  0.87582877     0.07100
N793        N  0.12051954  0.82151843  0.74072940    -0.27300
N794        N  0.12835162  0.82777390  0.73082026    -0.35200
C795        C  0.11769147  0.81780124  0.72237768     0.01000
C796        C  0.10231609  0.80474812  0.72718493     0.07000
C797        C  0.10456599  0.80755761  0.73883885    -0.06100
H798        H  0.12077387  0.82011754  0.71338946     0.07700
H799        H  0.09542450  0.79981838  0.74547806     0.08900
Cu800      Cu  0.15272500  0.85022937  0.72916598     0.44200
Cu801      Cu  0.13224127  0.83167646  0.75640152     0.42000
Cu802      Cu  0.17391600  0.87189450  0.75547762     0.43900
N803        N  0.17539492  0.87457322  0.72985002    -0.34700
N804        N  0.18270891  0.88274510  0.73948436    -0.29000
C805        C  0.19636685  0.89865169  0.73706929    -0.05100
C806        C  0.19783022  0.90056838  0.72533474     0.07200
C807        C  0.18434964  0.88500116  0.72103507     0.01000
H808        H  0.20469242  0.90805488  0.74340517     0.08600
H809        H  0.18097648  0.88167252  0.71216097     0.07700
N810        N  0.16313190  0.85773441  0.77028845    -0.36200
N811        N  0.14788768  0.84305185  0.77066366    -0.28300
C812        C  0.14499128  0.83680494  0.78139204    -0.03600
C813        C  0.15912218  0.84810024  0.78815024     0.05000
C814        C  0.17033718  0.86123948  0.78074839     0.03100
H815        H  0.13345798  0.82482274  0.78399094     0.08200
H816        H  0.18301371  0.87238434  0.78269506     0.07100
N817        N  0.30903396  0.03332832  0.67797449    -0.27300
N818        N  0.31551483  0.02347121  0.67441136    -0.35200
C819        C  0.30530434  0.00703275  0.67821297     0.01000
C820        C  0.29176478  0.00647521  0.68456653     0.07000
C821        C  0.29460786  0.02344111  0.68429023    -0.06100
H822        H  0.30758983  0.99627227  0.67645178     0.07700
H823        H  0.28647603  0.02812106  0.68805803     0.08900
Cu824      Cu  0.33771266  0.03263264  0.66430703     0.44200
Cu825      Cu  0.31959651  0.05936217  0.67318257     0.42000
Cu826      Cu  0.35736758  0.07701584  0.65375589     0.43900
N827        N  0.35953202  0.04385085  0.65375724    -0.34700
N828        N  0.36653310  0.05989308  0.64956213    -0.29000
C829        C  0.38003889  0.06278886  0.64271006    -0.05100
C830        C  0.38171888  0.04791930  0.64272639     0.07200
C831        C  0.36849624  0.03623442  0.64985369     0.01000
H832        H  0.38821341  0.07491777  0.63820831     0.08600
H833        H  0.36541498  0.02302462  0.65192513     0.07700
N834        N  0.34545500  0.09106248  0.65954181    -0.36200
N835        N  0.33176569  0.08454044  0.66646833    -0.28300
C836        C  0.32726054  0.09681926  0.66848010    -0.03600
C837        C  0.33866409  0.11194733  0.66260311     0.05000
C838        C  0.35005002  0.10775224  0.65703940     0.03100
H839        H  0.31662153  0.09488565  0.67402804     0.08200
H840        H  0.36087484  0.11615573  0.65152885     0.07100
N841        N  0.02978869  0.30230757  0.31824166    -0.27300
N842        N  0.01997501  0.30916533  0.32119051    -0.35200
C843        C  0.00423579  0.30005622  0.31610235     0.01000
C844        C  0.00429013  0.28702799  0.30952579     0.07000
C845        C  0.02070522  0.28888095  0.31106306    -0.06100
H846        H  0.99357413  0.30274460  0.31710389     0.07700
H847        H  0.02551940  0.28072666  0.30751697     0.08900
Cu848      Cu  0.02839979  0.33048258  0.33206287     0.44200
Cu849      Cu  0.05457657  0.31048864  0.32464196     0.42000
Cu850      Cu  0.06997727  0.34421617  0.34612571     0.43900
N851        N  0.03955153  0.35088593  0.34375264    -0.34700
N852        N  0.05436698  0.35540875  0.34920036    -0.29000
C853        C  0.05753745  0.36834209  0.35658954    -0.05100
C854        C  0.04417881  0.37230632  0.35568950     0.07200
C855        C  0.03304496  0.36100328  0.34741806     0.01000
H856        H  0.06885759  0.37452564  0.36212833     0.08600
H857        H  0.02085380  0.35986397  0.34449751     0.07700
N858        N  0.08414350  0.33241439  0.34066873    -0.36200
N859        N  0.07850754  0.32015519  0.33273798    -0.28300
C860        C  0.09069499  0.31545176  0.33095409    -0.03600
C861        C  0.10483461  0.32524621  0.33810576     0.05000
C862        C  0.10012359  0.33586873  0.34413954     0.03100
H863        H  0.08922704  0.30557209  0.32488461     0.08200
H864        H  0.10775654  0.34558520  0.35050528     0.07100
C865        C  0.27713268  0.99085867  0.69001423    -0.01300
C866        C  0.27124819  0.97424788  0.68529921    -0.09300
C867        C  0.25779150  0.95929194  0.69044088    -0.18200
C868        C  0.24991246  0.96041849  0.70067403     0.04200
C869        C  0.25604284  0.97731146  0.70550335     0.18400
C870        C  0.26928461  0.99233710  0.70003873    -0.19600
C871        C  0.24920686  0.97905635  0.71588761    -0.20900
C872        C  0.23670920  0.96434635  0.72172998    -0.19400
C873        C  0.23037061  0.94755485  0.71718128     0.19800
C874        C  0.23651471  0.94537155  0.70643229     0.01900
C875        C  0.22897924  0.92820997  0.70193671    -0.14100
C876        C  0.21630091  0.91382154  0.70802058    -0.11900
C877        C  0.21086630  0.91597468  0.71881517     0.01500
C878        C  0.21789790  0.93290033  0.72332638    -0.24000
H879        H  0.27702179  0.97277771  0.67751761     0.09500
H880        H  0.25415764  0.94701110  0.68632518     0.13000
H881        H  0.27391812  0.00514240  0.70381238     0.11800
H882        H  0.25382680  0.99186876  0.71963831     0.12900
H883        H  0.23194586  0.96612154  0.72986313     0.12000
H884        H  0.23248230  0.92546257  0.69370129     0.09100
H885        H  0.21097090  0.90088039  0.70433491     0.12300
H886        H  0.21345689  0.93470791  0.73157500     0.14200
C887        C  0.17283044  0.83519283  0.85960300    -0.01300
C888        C  0.18425262  0.85126018  0.85437192    -0.09300
C889        C  0.18259691  0.85407173  0.84281945    -0.18200
C890        C  0.16936153  0.84082651  0.83602005     0.04200
C891        C  0.15772620  0.82461282  0.84136184     0.18400
C892        C  0.15955529  0.82196538  0.85298108    -0.19600
C893        C  0.14430664  0.81106158  0.83507855    -0.20900
C894        C  0.14215855  0.81323393  0.82356997    -0.19400
C895        C  0.15340072  0.82899979  0.81803223     0.19800
C896        C  0.16720766  0.84303280  0.82414588     0.01900
C897        C  0.17823094  0.85860183  0.81807844    -0.14100
C898        C  0.17557451  0.86016080  0.80648647    -0.11900
C899        C  0.16187878  0.84632399  0.80049423     0.01500
C900        C  0.15087537  0.83076019  0.80638065    -0.24000
H901        H  0.19458534  0.86183849  0.85917942     0.09500
H902        H  0.19188862  0.86677670  0.83948052     0.13000
H903        H  0.15058503  0.80944678  0.85680244     0.11800
H904        H  0.13538204  0.79866912  0.83909866     0.12900
H905        H  0.13161623  0.80247576  0.81895992     0.12000
H906        H  0.18903179  0.86984113  0.82203500     0.09100
H907        H  0.18428264  0.87239664  0.80226564     0.12300
H908        H  0.14032749  0.81984044  0.80190993     0.14200
C909        C  0.01076891  0.72358205  0.69378889    -0.01300
C910        C  0.02730124  0.72814946  0.68935903    -0.09300
C911        C  0.04259311  0.74142660  0.69435112    -0.18200
C912        C  0.04185860  0.75047413  0.70411491     0.04200
C913        C  0.02504438  0.74557293  0.70868055     0.18400
C914        C  0.00975902  0.73246448  0.70340948    -0.19600
C915        C  0.02356723  0.75361645  0.71857862    -0.20900
C916        C  0.03844021  0.76634207  0.72413178    -0.19400
C917        C  0.05516854  0.77164997  0.71978670     0.19800
C918        C  0.05714801  0.76403027  0.70960090     0.01900
C919        C  0.07433180  0.77045131  0.70532745    -0.14100
C920        C  0.08886618  0.78374048  0.71098620    -0.11900
C921        C  0.08683810  0.79083056  0.72117186     0.01500
C922        C  0.06994665  0.78466770  0.72554426    -0.24000
H923        H  0.02845355  0.72152344  0.68191232     0.09500
H924        H  0.05478522  0.74411043  0.69046774     0.13000
H925        H  0.99704622  0.72883826  0.70701155     0.11800
H926        H  0.01080452  0.74989460  0.72213230     0.12900
H927        H  0.03683520  0.77217406  0.73184807     0.12000
H928        H  0.07696471  0.76565277  0.69755358     0.09100
H929        H  0.10180815  0.78831884  0.70745073     0.12300
H930        H  0.06826418  0.79030581  0.73333252     0.14200
C931        C  0.03250740  0.44970121  0.39346994    -0.01300
C932        C  0.04016779  0.44094216  0.39884292    -0.09300
C933        C  0.04217853  0.42816160  0.39309790    -0.18200
C934        C  0.03644619  0.42355259  0.38170301     0.04200
C935        C  0.02838720  0.43223846  0.37633364     0.18400
C936        C  0.02663848  0.44524926  0.38218693    -0.19600
C937        C  0.02209613  0.42787075  0.36515517    -0.20900
C938        C  0.02366930  0.41508153  0.35916075    -0.19400
C939        C  0.03177945  0.40647506  0.36413047     0.19800
C940        C  0.03840487  0.41066563  0.37545142     0.01900
C941        C  0.04687920  0.40190542  0.37995799    -0.14100
C942        C  0.04875686  0.38962439  0.37349337    -0.11900
C943        C  0.04205703  0.38540039  0.36240361     0.01500
C944        C  0.03345045  0.39379372  0.35779961    -0.24000
H945        H  0.04489641  0.44412841  0.40752278     0.09500
H946        H  0.04821428  0.42209453  0.39785158     0.13000
H947        H  0.02046062  0.45173971  0.37797751     0.11800
H948        H  0.01587215  0.43437393  0.36101790     0.12900
H949        H  0.01862302  0.41199754  0.35053195     0.12000
H950        H  0.05239824  0.40437777  0.38840844     0.09100
H951        H  0.05533906  0.38323362  0.37727659     0.12300
H952        H  0.02836804  0.39072854  0.34917577     0.14200
C953        C  0.96146950  0.54083167  0.61123598    -0.01300
C954        C  0.96937241  0.54602080  0.62196098    -0.09300
C955        C  0.96809211  0.55875058  0.62826952    -0.18200
C956        C  0.95852339  0.56658170  0.62411710     0.04200
C957        C  0.95042966  0.56121769  0.61323167     0.18400
C958        C  0.95224417  0.54869292  0.60682031    -0.19600
C959        C  0.94025704  0.56809476  0.60893616    -0.20900
C960        C  0.93767951  0.57995940  0.61530532    -0.19400
C961        C  0.94555425  0.58557466  0.62601335     0.19800
C962        C  0.95640506  0.57925466  0.63047110     0.01900
C963        C  0.96468801  0.58593343  0.64108959    -0.14100
C964        C  0.96210463  0.59814962  0.64707122    -0.11900
C965        C  0.95105573  0.60398659  0.64279359     0.01500
C966        C  0.94275271  0.59759462  0.63226883    -0.24000
H967        H  0.97666660  0.54021695  0.62551786     0.09500
H968        H  0.97442516  0.56185893  0.63647563     0.13000
H969        H  0.94591525  0.54458090  0.59857454     0.11800
H970        H  0.93400272  0.56404391  0.60066838     0.12900
H971        H  0.92951621  0.58483290  0.61180674     0.12000
H972        H  0.97341950  0.58216541  0.64496057     0.09100
H973        H  0.96868124  0.60291695  0.65517772     0.12300
H974        H  0.93443319  0.60230858  0.62880232     0.14200
C975        C  0.97857936  0.48254587  0.53189719    -0.01300
C976        C  0.98267151  0.47073354  0.52659834    -0.09300
C977        C  0.98718031  0.47238676  0.51503573    -0.18200
C978        C  0.98781867  0.48604202  0.50830863     0.04200
C979        C  0.98333276  0.49777020  0.51365039     0.18400
C980        C  0.97875128  0.49590224  0.52525514    -0.19600
C981        C  0.98363825  0.51148416  0.50742409    -0.20900
C982        C  0.98862476  0.51404120  0.49603072    -0.19400
C983        C  0.99343211  0.50294776  0.49054975     0.19800
C984        C  0.99295068  0.48867379  0.49654978     0.01900
C985        C  0.99785433  0.47785754  0.49053426    -0.14100
C986        C  0.00331527  0.48130047  0.47915479    -0.11900
C987        C  0.00406311  0.49558200  0.47330735     0.01500
C988        C  0.99889965  0.50622260  0.47910538    -0.24000
H989        H  0.98263654  0.46022118  0.53139420     0.09500
H990        H  0.99026602  0.46286651  0.51164937     0.13000
H991        H  0.97544128  0.50505952  0.52908857     0.11800
H992        H  0.98016136  0.52043094  0.51143050     0.12900
H993        H  0.98888058  0.52490067  0.49149796     0.12000
H994        H  0.99775613  0.46670718  0.49440570     0.09100
H995        H  0.00710631  0.47272659  0.47500513     0.12300
H996        H  0.99920169  0.51722909  0.47477687     0.14200
C997        C  0.45712780  0.03127725  0.60616443    -0.01300
C998        C  0.45215526  0.02437332  0.61718663    -0.09300
C999        C  0.43991931  0.02666655  0.62342446    -0.18200
C1000       C  0.43221965  0.03613067  0.61887094     0.04200
C1001       C  0.43747177  0.04336057  0.60775499     0.18400
C1002       C  0.44964628  0.04073267  0.60149518    -0.19600
C1003       C  0.43064808  0.05329992  0.60298775    -0.20900
C1004       C  0.41883683  0.05636532  0.60905501    -0.19400
C1005       C  0.41325801  0.04929035  0.61996728     0.19800
C1006       C  0.41963914  0.03881391  0.62496706     0.01900
C1007       C  0.41300730  0.03136353  0.63580272    -0.14100
C1008       C  0.40071358  0.03430980  0.64143398    -0.11900
C1009       C  0.39480785  0.04499558  0.63661012     0.01500
C1010       C  0.40120688  0.05251775  0.62588068    -0.24000
H1011       H  0.45759308  0.01694125  0.62102707     0.09500
H1012       H  0.43690277  0.02099758  0.63183912     0.13000
H1013       H  0.45353107  0.04636626  0.59304914     0.11800
H1014       H  0.43460767  0.05889774  0.59453609     0.12900
H1015       H  0.41394864  0.06425806  0.60514863     0.12000
H1016       H  0.41687210  0.02300277  0.64010378     0.09100
H1017       H  0.39596291  0.02834461  0.64971089     0.12300
H1018       H  0.39648543  0.06057754  0.62200526     0.14200
C1019       C  0.50291754  0.99233914  0.46659890    -0.01300
C1020       C  0.51708201  0.99283956  0.47243881    -0.09300
C1021       C  0.51986544  0.99712973  0.48402505    -0.18200
C1022       C  0.50850397  0.00110699  0.49023982     0.04200
C1023       C  0.49432074  0.00084398  0.48425439     0.18400
C1024       C  0.49165084  0.99645535  0.47262178    -0.19600
C1025       C  0.48281878  0.00494968  0.48990582    -0.20900
C1026       C  0.48507521  0.00933276  0.50140181    -0.19400
C1027       C  0.49878692  0.00955320  0.50758778     0.19800
C1028       C  0.51066728  0.00536113  0.50213866     0.01900
C1029       C  0.52407909  0.00551499  0.50887745    -0.14100
C1030       C  0.52564598  0.00973909  0.52047857    -0.11900
C1031       C  0.51396701  0.01398737  0.52582108     0.01500
C1032       C  0.50058224  0.01387421  0.51923676    -0.24000
H1033       H  0.52618186  0.98995831  0.46807235     0.09500
H1034       H  0.53106444  0.99726977  0.48785744     0.13000
H1035       H  0.48061142  0.99613833  0.46831975     0.11800
H1036       H  0.47199953  0.00481356  0.48539102     0.12900
H1037       H  0.47594830  0.01248407  0.50550359     0.12000
H1038       H  0.53350945  0.00231743  0.50546088     0.09100
H1039       H  0.53606381  0.00954306  0.52525049     0.12300
H1040       H  0.49142025  0.01713227  0.52313442     0.14200
C1041       C  0.61006039  0.95164772  0.35549453    -0.01300
C1042       C  0.60324932  0.96171672  0.35090682    -0.09300
C1043       C  0.59008772  0.96322143  0.35655580    -0.18200
C1044       C  0.58329402  0.95472974  0.36711105     0.04200
C1045       C  0.59017794  0.94445729  0.37171654     0.18400
C1046       C  0.60332053  0.94294043  0.36588402    -0.19600
C1047       C  0.58404555  0.93589387  0.38218576    -0.20900
C1048       C  0.57137152  0.93750571  0.38829193    -0.19400
C1049       C  0.56437958  0.94758846  0.38403679     0.19800
C1050       C  0.57006751  0.95617720  0.37331107     0.01900
C1051       C  0.56226154  0.96584510  0.36928362    -0.14100
C1052       C  0.54943956  0.96695648  0.37563863    -0.11900
C1053       C  0.54411754  0.95873722  0.38627109     0.01500
C1054       C  0.55169218  0.94912137  0.39045061    -0.24000
H1055       H  0.60801458  0.96844127  0.34284909     0.09500
H1056       H  0.58563275  0.97125538  0.35246155     0.13000
H1057       H  0.60853408  0.93521844  0.36960652     0.11800
H1058       H  0.58921650  0.92801857  0.38573801     0.12900
H1059       H  0.56702711  0.93083500  0.39641917     0.12000
H1060       H  0.56568485  0.97263574  0.36122958     0.09100
H1061       H  0.54384280  0.97454970  0.37226746     0.12300
H1062       H  0.54749006  0.94257812  0.39863170     0.14200
C1063       C  0.91859868  0.20619465  0.27195154    -0.01300
C1064       C  0.93520939  0.21456634  0.26689358    -0.09300
C1065       C  0.94962627  0.22772951  0.27267362    -0.18200
C1066       C  0.94776167  0.23317762  0.28368145     0.04200
C1067       C  0.93073639  0.22491775  0.28862687     0.18400
C1068       C  0.91647148  0.21133288  0.28285475    -0.19600
C1069       C  0.92797561  0.23045523  0.29921886    -0.20900
C1070       C  0.94176054  0.24417741  0.30499368    -0.19400
C1071       C  0.95874494  0.25230869  0.30049300     0.19800
C1072       C  0.96208448  0.24668071  0.28988645     0.01900
C1073       C  0.97965121  0.25463548  0.28606016    -0.14100
C1074       C  0.99324977  0.26767956  0.29246958    -0.11900
C1075       C  0.98977632  0.27348758  0.30272099     0.01500
C1076       C  0.97249098  0.26586868  0.30664632    -0.24000
H1077       H  0.93710148  0.21082098  0.25844279     0.09500
H1078       H  0.96196018  0.23362753  0.26819822     0.13000
H1079       H  0.90355094  0.20513731  0.28670847     0.11800
H1080       H  0.91500649  0.22429089  0.30299262     0.12900
H1081       H  0.93915729  0.24830898  0.31311522     0.12000
H1082       H  0.98336528  0.25080445  0.27828993     0.09100
H1083       H  0.00656886  0.27337336  0.28933809     0.12300
H1084       H  0.96981582  0.27010486  0.31470984     0.14200
C1085       C  0.72519683  0.00972982  0.29945126    -0.01300
C1086       C  0.71964330  0.01893374  0.29247773    -0.09300
C1087       C  0.73175853  0.03380759  0.28651864    -0.18200
C1088       C  0.74997057  0.04019277  0.28755190     0.04200
C1089       C  0.75553425  0.03100220  0.29487291     0.18400
C1090       C  0.74315687  0.01572480  0.30052729    -0.19600
C1091       C  0.77341423  0.03728760  0.29667572    -0.20900
C1092       C  0.78593821  0.05264990  0.29146262    -0.19400
C1093       C  0.78090398  0.06180758  0.28404109     0.19800
C1094       C  0.76285889  0.05551677  0.28176483     0.01900
C1095       C  0.75854664  0.06474623  0.27370438    -0.14100
C1096       C  0.77160871  0.07968873  0.26827337    -0.11900
C1097       C  0.78929692  0.08609989  0.27084495     0.01500
C1098       C  0.79385704  0.07714609  0.27876993    -0.24000
H1099       H  0.70580693  0.01452706  0.29155827     0.09500
H1100       H  0.72646386  0.04022603  0.28138181     0.13000
H1101       H  0.74753247  0.00882058  0.30609182     0.11800
H1102       H  0.77774319  0.03041393  0.30229778     0.12900
H1103       H  0.79967707  0.05730635  0.29315877     0.12000
H1104       H  0.74523422  0.06058468  0.27125704     0.09100
H1105       H  0.76783410  0.08639263  0.26212289     0.12300
H1106       H  0.80757388  0.08186477  0.28060900     0.14200
C1107       C  0.93867817  0.32558286  0.02303427    -0.01300
C1108       C  0.92093714  0.32043820  0.02181627    -0.09300
C1109       C  0.90808986  0.30596676  0.02776478    -0.18200
C1110       C  0.91269582  0.29636210  0.03531608     0.04200
C1111       C  0.93081156  0.30214289  0.03683757     0.18400
C1112       C  0.94352240  0.31639110  0.03056110    -0.19600
C1113       C  0.93617009  0.29374581  0.04466195    -0.20900
C1114       C  0.92389829  0.27962718  0.05101731    -0.19400
C1115       C  0.90595599  0.27323478  0.04945211     0.19800
C1116       C  0.90004981  0.28133033  0.04146470     0.01900
C1117       C  0.88176337  0.27378985  0.03983026    -0.14100
C1118       C  0.86990634  0.25888508  0.04588971    -0.11900
C1119       C  0.87582594  0.25119823  0.05388821     0.01500
C1120       C  0.89386968  0.25854653  0.05569643    -0.24000
H1121       H  0.91694364  0.32745115  0.01607572     0.09500
H1122       H  0.89471056  0.30277218  0.02638182     0.13000
H1123       H  0.95728670  0.32057130  0.03171378     0.11800
H1124       H  0.94996738  0.29820270  0.04593055     0.12900
H1125       H  0.92847234  0.27346669  0.05705995     0.12000
H1126       H  0.87621896  0.27887952  0.03377013     0.09100
H1127       H  0.85600943  0.25343851  0.04436348     0.12300
H1128       H  0.89857151  0.25248568  0.06172745     0.14200
C1129       C  0.83533426  0.17367471  0.13287674    -0.01300
C1130       C  0.85104511  0.18539551  0.13833664    -0.09300
C1131       C  0.85322815  0.18408732  0.15001897    -0.18200
C1132       C  0.83968854  0.17089178  0.15668687     0.04200
C1133       C  0.82378523  0.15904847  0.15111595     0.18400
C1134       C  0.82175544  0.16056493  0.13938592    -0.19600
C1135       C  0.80996970  0.14566262  0.15725965    -0.20900
C1136       C  0.81164624  0.14365157  0.16884988    -0.19400
C1137       C  0.82714632  0.15503310  0.17459256     0.19800
C1138       C  0.84136101  0.16890284  0.16863543     0.01900
C1139       C  0.85661741  0.18010169  0.17490786    -0.14100
C1140       C  0.85777571  0.17745493  0.18653411    -0.11900
C1141       C  0.84382444  0.16360295  0.19235372     0.01500
C1142       C  0.82849831  0.15252305  0.18628242    -0.24000
H1143       H  0.86184580  0.19562190  0.13359731     0.09500
H1144       H  0.86571581  0.19354477  0.15353898     0.13000
H1145       H  0.80946174  0.15143278  0.13538424     0.11800
H1146       H  0.79780221  0.13660323  0.15305501     0.12900
H1147       H  0.80074171  0.13307990  0.17335064     0.12000
H1148       H  0.86791585  0.19102619  0.17109741     0.09100
H1149       H  0.86976409  0.18638019  0.19091398     0.12300
H1150       H  0.81752960  0.14177641  0.19058446     0.14200
C1151       C  0.20101415  0.32215835  0.34154914    -0.01300
C1152       C  0.19764103  0.33139422  0.34995300    -0.09300
C1153       C  0.18196803  0.33176472  0.35000190    -0.18200
C1154       C  0.16907888  0.32295580  0.34152482     0.04200
C1155       C  0.17233470  0.31317987  0.33319831     0.18400
C1156       C  0.18812913  0.31281567  0.33330768    -0.19600
C1157       C  0.15992132  0.30403108  0.32470036    -0.20900
C1158       C  0.14438394  0.30452779  0.32420485    -0.19400
C1159       C  0.14090136  0.31426369  0.33215772     0.19800
C1160       C  0.15317929  0.32361349  0.34094103     0.01900
C1161       C  0.14909151  0.33339954  0.34865334    -0.14100
C1162       C  0.13351115  0.33385580  0.34769056    -0.11900
C1163       C  0.12138354  0.32460382  0.33904441     0.01500
C1164       C  0.12522986  0.31479805  0.33131046    -0.24000
H1165       H  0.20718042  0.33844497  0.35656094     0.09500
H1166       H  0.18042544  0.33917285  0.35675646     0.13000
H1167       H  0.19054740  0.30562398  0.32674133     0.11800
H1168       H  0.16228747  0.29650960  0.31834521     0.12900
H1169       H  0.13507995  0.29735073  0.31748846     0.12000
H1170       H  0.15768377  0.34093977  0.35551255     0.09100
H1171       H  0.13101165  0.34149027  0.35384829     0.12300
H1172       H  0.11613910  0.30765141  0.32450578     0.14200
C1173       C  0.24620420  0.88246500  0.93977229    -0.01300
C1174       C  0.25486164  0.87741866  0.94760204    -0.09300
C1175       C  0.27041781  0.88990370  0.95278914    -0.18200
C1176       C  0.27759898  0.90798150  0.95049178     0.04200
C1177       C  0.26820253  0.91308093  0.94301965     0.18400
C1178       C  0.25293356  0.90033068  0.93752194    -0.19600
C1179       C  0.27400370  0.93086441  0.94118667    -0.20900
C1180       C  0.28881329  0.94371473  0.94676384    -0.19400
C1181       C  0.29864723  0.93911771  0.95389972     0.19800
C1182       C  0.29352531  0.92118983  0.95554101     0.01900
C1183       C  0.30470021  0.91728471  0.96203561    -0.14100
C1184       C  0.31989407  0.93059583  0.96709131    -0.11900
C1185       C  0.32425664  0.94814633  0.96605427     0.01500
C1186       C  0.31363618  0.95234098  0.95938248    -0.24000
H1187       H  0.24980852  0.86368816  0.94951374     0.09500
H1188       H  0.27634342  0.88504433  0.95873158     0.13000
H1189       H  0.24605964  0.90432145  0.93164021     0.11800
H1190       H  0.26683564  0.93485971  0.93557661     0.12900
H1191       H  0.29273717  0.95735427  0.94536414     0.12000
H1192       H  0.30216866  0.90407988  0.96321932     0.09100
H1193       H  0.32801777  0.92708383  0.97211537     0.12300
H1194       H  0.31720115  0.96595808  0.95832655     0.14200
C1195       C  0.42405585  0.96832935  0.38856951    -0.01300
C1196       C  0.41682962  0.97876759  0.39163327    -0.09300
C1197       C  0.40157230  0.97652757  0.38639720    -0.18200
C1198       C  0.39281665  0.96346495  0.37800540     0.04200
C1199       C  0.39989465  0.95251440  0.37521261     0.18400
C1200       C  0.41552793  0.95525125  0.38031599    -0.19600
C1201       C  0.39122130  0.93875926  0.36744117    -0.20900
C1202       C  0.37557489  0.93555001  0.36241542    -0.19400
C1203       C  0.36850354  0.94637146  0.36473729     0.19800
C1204       C  0.37721111  0.96072539  0.37238394     0.01900
C1205       C  0.37008417  0.97188299  0.37388704    -0.14100
C1206       C  0.35494088  0.96883508  0.36809116    -0.11900
C1207       C  0.34615682  0.95438989  0.36084865     0.01500
C1208       C  0.35291355  0.94310473  0.35928836    -0.24000
H1209       H  0.42313455  0.98890230  0.39802354     0.09500
H1210       H  0.39679528  0.98502507  0.38924247     0.13000
H1211       H  0.42081482  0.94685245  0.37806778     0.11800
H1212       H  0.39646848  0.93027890  0.36533544     0.12900
H1213       H  0.36909183  0.92467268  0.35653303     0.12000
H1214       H  0.37613095  0.98330482  0.37927290     0.09100
H1215       H  0.34996607  0.97775882  0.36936672     0.12300
H1216       H  0.34633637  0.93208726  0.35351229     0.14200
C1217       C  0.36019681  0.11651958  0.05891534    -0.01300
C1218       C  0.37099903  0.11050944  0.06341210    -0.09300
C1219       C  0.37454510  0.09908351  0.05720273    -0.18200
C1220       C  0.36717979  0.09310040  0.04626878     0.04200
C1221       C  0.35565535  0.09869854  0.04195757     0.18400
C1222       C  0.35246364  0.11043890  0.04821161    -0.19600
C1223       C  0.34740948  0.09259407  0.03140821    -0.20900
C1224       C  0.35040290  0.08107402  0.02499165    -0.19400
C1225       C  0.36199902  0.07564861  0.02884946     0.19800
C1226       C  0.37073985  0.08173133  0.03947704     0.01900
C1227       C  0.38281730  0.07634009  0.04273954    -0.14100
C1228       C  0.38583861  0.06518385  0.03582287    -0.11900
C1229       C  0.37686280  0.05889053  0.02549010     0.01500
C1230       C  0.36498097  0.06424066  0.02206757    -0.24000
H1231       H  0.37713094  0.11499824  0.07166774     0.09500
H1232       H  0.38304160  0.09512722  0.06121530     0.13000
H1233       H  0.34383436  0.11478021  0.04475429     0.11800
H1234       H  0.33852482  0.09671681  0.02810658     0.12900
H1235       H  0.34373586  0.07652272  0.01688322     0.12000
H1236       H  0.39025735  0.08063458  0.05053336     0.09100
H1237       H  0.39508220  0.06127770  0.03869911     0.12300
H1238       H  0.35819120  0.05974688  0.01399668     0.14200
C1239       C  0.28835561  0.07958183  0.27525128    -0.01300
C1240       C  0.28025731  0.06318890  0.26991848    -0.09300
C1241       C  0.27856377  0.04842240  0.27556639    -0.18200
C1242       C  0.28533833  0.04971952  0.28670111     0.04200
C1243       C  0.29408930  0.06655626  0.29188398     0.18400
C1244       C  0.29517387  0.08114966  0.28625227    -0.19600
C1245       C  0.30190572  0.06879674  0.30260660    -0.20900
C1246       C  0.30127496  0.05466426  0.30832285    -0.19400
C1247       C  0.29235970  0.03783556  0.30361818     0.19800
C1248       C  0.28398277  0.03502976  0.29282868     0.01900
C1249       C  0.27443491  0.01761888  0.28875025    -0.14100
C1250       C  0.27344258  0.00367629  0.29506757    -0.11900
C1251       C  0.28211683  0.00659699  0.30554560     0.01500
C1252       C  0.29160786  0.02374667  0.30973566    -0.24000
H1253       H  0.27500646  0.06174096  0.26138019     0.09500
H1254       H  0.27217814  0.03625290  0.27092065     0.13000
H1255       H  0.30180005  0.09389602  0.29032479     0.13600
H1256       H  0.30872153  0.08162116  0.30655643     0.12900
H1257       H  0.30761270  0.05687946  0.31656531     0.12000
H1258       H  0.26736726  0.01431775  0.28079610     0.09100
H1259       H  0.26601739  0.99055064  0.29163733     0.12300
H1260       H  0.29809701  0.02611326  0.31793380     0.14200
C1261       C  0.29574963  0.20797294  0.27851910    -0.01300
C1262       C  0.28240946  0.20249442  0.28667685    -0.09300
C1263       C  0.27982614  0.21465982  0.29274659    -0.18200
C1264       C  0.29073463  0.23286158  0.29094885     0.04200
C1265       C  0.30456054  0.23836767  0.28287344     0.18400
C1266       C  0.30675388  0.22595239  0.27663904    -0.19600
C1267       C  0.31621749  0.25623194  0.28113990    -0.20900
C1268       C  0.31451030  0.26879363  0.28730229    -0.19400
C1269       C  0.30082905  0.26382187  0.29513792     0.19800
C1270       C  0.28854523  0.24578574  0.29693709     0.01900
C1271       C  0.27448209  0.24150570  0.30453558    -0.14100
C1272       C  0.27280192  0.25456577  0.31015184    -0.11900
C1273       C  0.28518157  0.27226304  0.30856843     0.01500
C1274       C  0.29923436  0.27681121  0.30109938    -0.24000
H1275       H  0.27372239  0.18868111  0.28828826     0.09500
H1276       H  0.26932283  0.20938588  0.29888899     0.13000
H1277       H  0.31731188  0.23032072  0.27048412     0.11800
H1278       H  0.32684587  0.26052368  0.27504868     0.12900
H1279       H  0.32385445  0.28251260  0.28583557     0.12000
H1280       H  0.26439460  0.22820927  0.30618696     0.09100
H1281       H  0.26183974  0.25075849  0.31589306     0.12300
H1282       H  0.30870861  0.29052023  0.29970338     0.14200
C1283       C  0.35126629  0.17488245  0.13986338    -0.01300
C1284       C  0.35057609  0.16062242  0.14568941    -0.09300
C1285       C  0.34729138  0.15836502  0.15738904    -0.18200
C1286       C  0.34453753  0.17036177  0.16380703     0.04200
C1287       C  0.34551245  0.18498272  0.15796840     0.18400
C1288       C  0.34887315  0.18712399  0.14615009    -0.19600
C1289       C  0.34292202  0.19728278  0.16393953    -0.20900
C1290       C  0.33907502  0.19521745  0.17554515    -0.19400
C1291       C  0.33772329  0.18080140  0.18150193     0.19800
C1292       C  0.34061593  0.16825187  0.17575152     0.01900
C1293       C  0.33921937  0.15402052  0.18218994    -0.14100
C1294       C  0.33462835  0.15206257  0.19371525    -0.11900
C1295       C  0.33131328  0.16418432  0.19931231     0.01500
C1296       C  0.33319922  0.17871601  0.19314923    -0.24000
H1297       H  0.35251791  0.15097043  0.14124395     0.09500
H1298       H  0.34688572  0.14699403  0.16112290     0.13000
H1299       H  0.34938120  0.19826270  0.14186533     0.11800
H1300       H  0.34370360  0.20850744  0.15957663     0.12900
H1301       H  0.33696138  0.20488831  0.17986992     0.12000
H1302       H  0.34144161  0.14405778  0.17856846     0.09100
H1303       H  0.33364567  0.14088232  0.19822272     0.12300
H1304       H  0.33071256  0.18824572  0.19730603     0.14200
C1305       C  0.33957729  0.21025529  0.66666458    -0.01300
C1306       C  0.35462583  0.21017594  0.66277544    -0.09300
C1307       C  0.35501892  0.19456107  0.66176025    -0.18200
C1308       C  0.34027805  0.17827344  0.66462701     0.04200
C1309       C  0.32508905  0.17835555  0.66869790     0.18400
C1310       C  0.32485969  0.19419102  0.66965573    -0.19600
C1311       C  0.31019058  0.16261702  0.67180042    -0.20900
C1312       C  0.31007919  0.14679335  0.67103733    -0.19400
C1313       C  0.32482187  0.14625610  0.66707874     0.19800
C1314       C  0.34008694  0.16194957  0.66369658     0.01900
C1315       C  0.35446284  0.16057170  0.65954740    -0.14100
C1316       C  0.35383488  0.14439601  0.65904527    -0.11900
C1317       C  0.33893105  0.12900302  0.66266159     0.01500
C1318       C  0.32439452  0.13007852  0.66655643    -0.24000
H1319       H  0.36631087  0.22224716  0.66050042     0.09500
H1320       H  0.36712330  0.19571985  0.65875015     0.13000
H1321       H  0.31308354  0.19388815  0.67267824     0.11800
H1322       H  0.29855138  0.16254885  0.67490553     0.12900
H1323       H  0.29836713  0.13487606  0.67359181     0.12000
H1324       H  0.36643432  0.17175977  0.65665593     0.09100
H1325       H  0.36527666  0.14406927  0.65599461     0.12300
H1326       H  0.31263362  0.11829705  0.66920022     0.14200
C1327       C  0.12555917  0.37366763  0.94415445    -0.01300
C1328       C  0.12123204  0.36762785  0.95538857    -0.09300
C1329       C  0.10837390  0.36928390  0.96134521    -0.18200
C1330       C  0.09960370  0.37736960  0.95627114     0.04200
C1331       C  0.10459632  0.38410519  0.94502166     0.18400
C1332       C  0.11721512  0.38192981  0.93903483    -0.19600
C1333       C  0.09701668  0.39303545  0.93981340    -0.20900
C1334       C  0.08452215  0.39542045  0.94552280    -0.19400
C1335       C  0.07894539  0.38852811  0.95646522     0.19800
C1336       C  0.08618477  0.37915284  0.96194902     0.01900
C1337       C  0.07944610  0.37174849  0.97277753    -0.14100
C1338       C  0.06623535  0.37374957  0.97795028    -0.11900
C1339       C  0.05949817  0.38339063  0.97262339     0.01500
C1340       C  0.06597700  0.39079069  0.96189397    -0.24000
H1341       H  0.12757845  0.36126162  0.95953099     0.09500
H1342       H  0.10573672  0.36428554  0.96994108     0.13000
H1343       H  0.12076952  0.38694904  0.93041717     0.11800
H1344       H  0.10086479  0.39832072  0.93127977     0.12900
H1345       H  0.07899938  0.40250961  0.94127798     0.12000
H1346       H  0.08390488  0.36410396  0.97738536     0.09100
H1347       H  0.06142299  0.36787963  0.98624033     0.12300
H1348       H  0.06059826  0.39798084  0.95760671     0.14200
C1349       C  0.21126832  0.29408766  0.72604202    -0.01300
C1350       C  0.20636362  0.27940118  0.71913758    -0.09300
C1351       C  0.21896112  0.27721902  0.71324960    -0.18200
C1352       C  0.23697348  0.28994041  0.71390376     0.04200
C1353       C  0.24180122  0.30508442  0.72066708     0.18400
C1354       C  0.22903320  0.30684123  0.72681504    -0.19600
C1355       C  0.25931696  0.31849355  0.72114637    -0.20900
C1356       C  0.27217240  0.31727305  0.71497929    -0.19400
C1357       C  0.26793199  0.30239136  0.70842851     0.19800
C1358       C  0.25032904  0.28833786  0.70797070     0.01900
C1359       C  0.24693439  0.27324695  0.70168861    -0.14100
C1360       C  0.26038819  0.27230305  0.69597449    -0.11900
C1361       C  0.27759504  0.28640131  0.69615402     0.01500
C1362       C  0.28125362  0.30142884  0.70239678    -0.24000
H1363       H  0.19270082  0.26940082  0.71839730     0.09500
H1364       H  0.21415155  0.26559042  0.70810161     0.13000
H1365       H  0.23288671  0.31840413  0.73198611     0.11800
H1366       H  0.26307654  0.33012020  0.72622273     0.12900
H1367       H  0.28557478  0.32798614  0.71542939     0.12000
H1368       H  0.23406446  0.26185391  0.70115142     0.09100
H1369       H  0.25722477  0.26053751  0.69123436     0.12300
H1370       H  0.29459392  0.31228367  0.70276632     0.14200
C1371       C  0.16666882  0.33010545  0.80420103    -0.01300
C1372       C  0.18319101  0.33692701  0.80932413    -0.09300
C1373       C  0.18542279  0.34068183  0.82097824    -0.18200
C1374       C  0.17109335  0.33768508  0.82798078     0.04200
C1375       C  0.15443306  0.33110708  0.82271527     0.18400
C1376       C  0.15239767  0.32744826  0.81098229    -0.19600
C1377       C  0.13980553  0.32800037  0.82920586    -0.20900
C1378       C  0.14131362  0.33116787  0.84087039    -0.19400
C1379       C  0.15747693  0.33747609  0.84635013     0.19800
C1380       C  0.17262516  0.34083912  0.84000237     0.01900
C1381       C  0.18857495  0.34703788  0.84600324    -0.14100
C1382       C  0.18939089  0.34967951  0.85777484    -0.11900
C1383       C  0.17443917  0.34637844  0.86398460     0.01500
C1384       C  0.15853169  0.34033905  0.85818286    -0.24000
H1385       H  0.19454545  0.33938177  0.80434550     0.09500
H1386       H  0.19852837  0.34584719  0.82423778     0.13000
H1387       H  0.13950585  0.32216843  0.80722772     0.11800
H1388       H  0.12706846  0.32300769  0.82523743     0.12900
H1389       H  0.12971868  0.32857634  0.84565287     0.12000
H1390       H  0.20065586  0.34990738  0.84187458     0.09100
H1391       H  0.20190970  0.35454073  0.86199211     0.12300
H1392       H  0.14683622  0.33758464  0.86289902     0.14200
C1393       C  0.95861657  0.41492742  0.61472769    -0.01300
C1394       C  0.96415909  0.41692439  0.62610658    -0.09300
C1395       C  0.96289583  0.40272963  0.63227634    -0.18200
C1396       C  0.95580686  0.38593402  0.62725649     0.04200
C1397       C  0.94957093  0.38387804  0.61585680     0.18400
C1398       C  0.95121956  0.39831086  0.60970863    -0.19600
C1399       C  0.94168371  0.36741169  0.61063104    -0.20900
C1400       C  0.93978286  0.35284958  0.61648940    -0.19400
C1401       C  0.94614351  0.35446684  0.62761522     0.19800
C1402       C  0.95455120  0.37108246  0.63311149     0.01900
C1403       C  0.96158715  0.37210644  0.64412392    -0.14100
C1404       C  0.96016083  0.35723104  0.64944594    -0.11900
C1405       C  0.95136587  0.34084481  0.64411136     0.01500
C1406       C  0.94431789  0.33954513  0.63322375    -0.24000
H1407       H  0.96984464  0.42960409  0.63021080     0.09500
H1408       H  0.96744951  0.40527929  0.64097312     0.13000
H1409       H  0.94650468  0.39651413  0.60099960     0.11800
H1410       H  0.93681789  0.36575013  0.60196538     0.12900
H1411       H  0.93347320  0.34025300  0.61222867     0.12000
H1412       H  0.96853606  0.38425606  0.64875017     0.09100
H1413       H  0.96576405  0.35850987  0.65785784     0.12300
H1414       H  0.93778487  0.32693193  0.62897666     0.14200
C1415       C  0.00968392  0.28071438  0.69752010    -0.01300
C1416       C  0.00766305  0.27525600  0.70888663    -0.09300
C1417       C  0.02196778  0.27710057  0.71515677    -0.18200
C1418       C  0.03874083  0.28410545  0.71010168     0.04200
C1419       C  0.04049311  0.28888484  0.69838342     0.18400
C1420       C  0.02612376  0.28758332  0.69230875    -0.19600
C1421       C  0.05650287  0.29471557  0.69277371    -0.20900
C1422       C  0.07081714  0.29577503  0.69853647    -0.19400
C1423       C  0.06966173  0.29166599  0.71015388     0.19800
C1424       C  0.05373763  0.28621582  0.71618079     0.01900
C1425       C  0.05360191  0.28335605  0.72805897    -0.14100
C1426       C  0.06850891  0.28536807  0.73363343    -0.11900
C1427       C  0.08392667  0.29002007  0.72757038     0.01500
C1428       C  0.08441764  0.29315951  0.71582279    -0.24000
H1429       H  0.99498834  0.26980581  0.71300963     0.09500
H1430       H  0.01939218  0.27257142  0.72385866     0.13000
H1431       H  0.02760132  0.29150236  0.68342285     0.11800
H1432       H  0.05788903  0.29823127  0.68382052     0.12900
H1433       H  0.08295517  0.30007652  0.69390955     0.12000
H1434       H  0.04227668  0.27984761  0.73331531     0.09100
H1435       H  0.06786116  0.28300171  0.74273257     0.12300
H1436       H  0.09644920  0.29719534  0.71112270     0.14200
C1437       C  0.41636893  0.45791552  0.39002187    -0.01300
C1438       C  0.41888514  0.45280415  0.37920907    -0.09300
C1439       C  0.40479459  0.44004173  0.37300113    -0.18200
C1440       C  0.38754408  0.43196066  0.37740019     0.04200
C1441       C  0.38500736  0.43732750  0.38833436     0.18400
C1442       C  0.39936705  0.45007722  0.39454730    -0.19600
C1443       C  0.36814923  0.42999247  0.39298508    -0.20900
C1444       C  0.35370425  0.41740067  0.38700494    -0.19400
C1445       C  0.35578159  0.41168744  0.37628206     0.19800
C1446       C  0.37274326  0.41879561  0.37134624     0.01900
C1447       C  0.37414912  0.41229348  0.36060572    -0.14100
C1448       C  0.35938294  0.39926200  0.35505746    -0.11900
C1449       C  0.34270796  0.39236244  0.35991901     0.01500
C1450       C  0.34098502  0.39874411  0.37050716    -0.24000
H1451       H  0.43187569  0.45853157  0.37553333     0.09500
H1452       H  0.40788194  0.43688386  0.36476539     0.13000
H1453       H  0.39722381  0.45408694  0.40284896     0.11800
H1454       H  0.36611045  0.43406048  0.40129791     0.12900
H1455       H  0.34082133  0.41200673  0.39083090     0.12000
H1456       H  0.38647186  0.41685128  0.35628651     0.09100
H1457       H  0.36106384  0.39466590  0.34684750     0.12300
H1458       H  0.32815630  0.39333981  0.37441260     0.14200
C1459       C  0.45638194  0.42056680  0.60808287    -0.01300
C1460       C  0.43860656  0.41568144  0.60783032    -0.09300
C1461       C  0.42637331  0.40183010  0.61454498    -0.18200
C1462       C  0.43152380  0.39214397  0.62161827     0.04200
C1463       C  0.44947601  0.39672178  0.62146952     0.18400
C1464       C  0.46170881  0.41099905  0.61492069    -0.19600
C1465       C  0.45510977  0.38696387  0.62781026    -0.20900
C1466       C  0.44328104  0.37266307  0.63426961    -0.19400
C1467       C  0.42560808  0.36807832  0.63484908     0.19800
C1468       C  0.41952855  0.37798058  0.62872562     0.01900
C1469       C  0.40178221  0.37342403  0.63013972    -0.14100
C1470       C  0.39054660  0.35949491  0.63718371    -0.11900
C1471       C  0.39644592  0.34940252  0.64286484     0.01500
C1472       C  0.41399718  0.35373332  0.64162193    -0.24000
H1473       H  0.43416654  0.42284712  0.60259074     0.09500
H1474       H  0.41295237  0.39887370  0.61390022     0.13000
H1475       H  0.47539911  0.41450027  0.61499986     0.11800
H1476       H  0.46874794  0.39030146  0.62767660     0.12900
H1477       H  0.44804496  0.36526664  0.63896974     0.12000
H1478       H  0.39626420  0.38055847  0.62606916     0.09100
H1479       H  0.37704452  0.35641151  0.63802812     0.12300
H1480       H  0.41872350  0.34615340  0.64614944     0.14200
C1481       C  0.49462279  0.50349792  0.53077839    -0.01300
C1482       C  0.47809512  0.49324797  0.52578878    -0.09300
C1483       C  0.47544863  0.49470294  0.51418859    -0.18200
C1484       C  0.48936485  0.50650292  0.50710326     0.04200
C1485       C  0.50604245  0.51709589  0.51223494     0.18400
C1486       C  0.50848576  0.51555848  0.52393192    -0.19600
C1487       C  0.52027028  0.52905273  0.50564528    -0.20900
C1488       C  0.51833466  0.53070215  0.49402873    -0.19400
C1489       C  0.50212588  0.52042412  0.48869794     0.19800
C1490       C  0.48739085  0.50815042  0.49513285     0.01900
C1491       C  0.47138264  0.49802968  0.48927390    -0.14100
C1492       C  0.47007889  0.50009332  0.47756956    -0.11900
C1493       C  0.48461988  0.51226693  0.47125642     0.01500
C1494       C  0.50061941  0.52236322  0.47693148    -0.24000
H1495       H  0.46705495  0.48400081  0.53085576     0.09500
H1496       H  0.46236048  0.48634452  0.51103620     0.13000
H1497       H  0.52137634  0.52353674  0.52761492     0.11800
H1498       H  0.53301961  0.53716921  0.50950032     0.12900
H1499       H  0.52962513  0.54007716  0.48917133     0.12000
H1500       H  0.45960059  0.48839533  0.49347565     0.09100
H1501       H  0.45750247  0.49213461  0.47351112     0.12300
H1502       H  0.51206668  0.53171405  0.47221160     0.14200
C1503       C  0.54324382  0.00889378  0.99471208    -0.01300
C1504       C  0.54240962  0.02316468  0.99930752    -0.09300
C1505       C  0.52649457  0.02302598  0.00003737    -0.18200
C1506       C  0.51071601  0.00851171  0.99615967     0.04200
C1507       C  0.51163833  0.99418321  0.99134349     0.18400
C1508       C  0.52773387  0.99450488  0.99065982    -0.19600
C1509       C  0.49646766  0.97953562  0.98726753    -0.20900
C1510       C  0.48034322  0.97880924  0.98783103    -0.19400
C1511       C  0.47895883  0.99267880  0.99252976     0.19800
C1512       C  0.49408903  0.00769456  0.99683474     0.01900
C1513       C  0.49187249  0.02119816  0.00162720    -0.14100
C1514       C  0.47542081  0.01994574  0.00195948    -0.11900
C1515       C  0.46056470  0.00524343  0.99755021     0.01500
C1516       C  0.46248242  0.99160539  0.99290955    -0.24000
H1517       H  0.55407720  0.03457212  0.00242198     0.09500
H1518       H  0.52701541  0.03450417  0.00368019     0.13000
H1519       H  0.52801177  0.98333760  0.98705196     0.11800
H1520       H  0.49707725  0.96855812  0.98358864     0.12900
H1521       H  0.46886208  0.96730337  0.98455694     0.12000
H1522       H  0.50258685  0.03294237  0.00517210     0.09100
H1523       H  0.47448400  0.03075147  0.00557157     0.12300
H1524       H  0.45113482  0.98003253  0.98959859     0.14200
C1525       C  0.67652619  0.05994388  0.02795125    -0.01300
C1526       C  0.68177638  0.07757766  0.02603350    -0.09300
C1527       C  0.69634401  0.09086329  0.03159814    -0.18200
C1528       C  0.70611869  0.08692035  0.03942675     0.04200
C1529       C  0.70052017  0.06897122  0.04152357     0.18400
C1530       C  0.68599816  0.05572525  0.03568900    -0.19600
C1531       C  0.70940094  0.06434876  0.04946400    -0.20900
C1532       C  0.72380547  0.07718020  0.05535195    -0.19400
C1533       C  0.72988711  0.09495822  0.05329387     0.19800
C1534       C  0.72121259  0.10010818  0.04524247     0.01900
C1535       C  0.72821116  0.11823486  0.04323841    -0.14100
C1536       C  0.74327224  0.13065097  0.04887161    -0.11900
C1537       C  0.75170976  0.12550998  0.05680996     0.01500
C1538       C  0.74481060  0.10764127  0.05910218    -0.24000
H1539       H  0.67472688  0.08118525  0.02005760     0.09500
H1540       H  0.69950089  0.10407264  0.02963527     0.13000
H1541       H  0.68186840  0.04209050  0.03733810     0.11800
H1542       H  0.70514501  0.05070061  0.05115803     0.12900
H1543       H  0.73037787  0.07316474  0.06145639     0.12000
H1544       H  0.72256445  0.12327564  0.03722365     0.09100
H1545       H  0.74829315  0.14439467  0.04703222     0.12300
H1546       H  0.75139250  0.10355321  0.06515352     0.14200
C1547       C  0.21111576  0.86664616  0.32978488    -0.01300
C1548       C  0.21097373  0.85198362  0.33459799    -0.09300
C1549       C  0.19576400  0.83556381  0.33459518    -0.18200
C1550       C  0.17999151  0.83316816  0.32976067     0.04200
C1551       C  0.18020230  0.84799676  0.32477747     0.18400
C1552       C  0.19561413  0.86443076  0.32481289    -0.19600
C1553       C  0.16497624  0.84640098  0.31985907    -0.20900
C1554       C  0.14945783  0.83040634  0.31986351    -0.19400
C1555       C  0.14875684  0.81556914  0.32476586     0.19800
C1556       C  0.16400885  0.81667893  0.32975009     0.01900
C1557       C  0.16252108  0.80124917  0.33455553    -0.14100
C1558       C  0.14657584  0.78548600  0.33447548    -0.11900
C1559       C  0.13153625  0.78444802  0.32959818     0.01500
C1560       C  0.13281224  0.79962157  0.32473604    -0.24000
H1561       H  0.22265844  0.85307789  0.33842845     0.09500
H1562       H  0.19678827  0.82503136  0.33849339     0.13000
H1563       H  0.19535732  0.87552618  0.32104895     0.11800
H1564       H  0.16503814  0.85764004  0.31602824     0.12900
H1565       H  0.13789100  0.82965315  0.31602851     0.12000
H1566       H  0.17342572  0.80090372  0.33845672     0.09100
H1567       H  0.14614632  0.77403429  0.33820330     0.12300
H1568       H  0.12134104  0.79916406  0.32099524     0.14200
C1569       C  0.04699475  0.64842825  0.36061675    -0.01300
C1570       C  0.05584361  0.65122047  0.37102069    -0.09300
C1571       C  0.05294815  0.63711388  0.37800634    -0.18200
C1572       C  0.04128092  0.61961759  0.37467630     0.04200
C1573       C  0.03277857  0.61687960  0.36393628     0.18400
C1574       C  0.03544532  0.63119258  0.35716255    -0.19600
C1575       C  0.02179550  0.59985554  0.35993588    -0.20900
C1576       C  0.01923481  0.58543350  0.36628800    -0.19400
C1577       C  0.02717577  0.58763451  0.37696318     0.19800
C1578       C  0.03796784  0.60473247  0.38146897     0.01900
C1579       C  0.04482792  0.60610484  0.39258697    -0.14100
C1580       C  0.04149739  0.59114819  0.39878571    -0.11900
C1581       C  0.03154316  0.57440651  0.39405374     0.01500
C1582       C  0.02435413  0.57277337  0.38315846    -0.24000
H1583       H  0.06485390  0.66441152  0.37387913     0.09500
H1584       H  0.06023452  0.64029565  0.38587297     0.13000
H1585       H  0.02877798  0.62887730  0.34903269     0.11800
H1586       H  0.01533646  0.59767314  0.35173976     0.12900
H1587       H  0.01087737  0.57243720  0.36284832     0.12000
H1588       H  0.05267542  0.61854251  0.39675191     0.09100
H1589       H  0.04710953  0.59272510  0.40722020     0.12300
H1590       H  0.01633330  0.55983610  0.37953245     0.14200
C1591       C  0.92087866  0.70840628  0.27486576    -0.01300
C1592       C  0.93730824  0.71721634  0.26956662    -0.09300
C1593       C  0.95214309  0.71840743  0.27482931    -0.18200
C1594       C  0.95091844  0.71036838  0.28551643     0.04200
C1595       C  0.93412772  0.70123438  0.29077299     0.18400
C1596       C  0.91943890  0.70065118  0.28554910    -0.19600
C1597       C  0.93201096  0.69243825  0.30111290    -0.20900
C1598       C  0.94615820  0.69229470  0.30630104    -0.19400
C1599       C  0.96289505  0.70128120  0.30142863     0.19800
C1600       C  0.96561389  0.71074062  0.29107496     0.01900
C1601       C  0.98292941  0.72017057  0.28678454    -0.14100
C1602       C  0.99684048  0.72002044  0.29245913    -0.11900
C1603       C  0.99401662  0.71031065  0.30249302     0.01500
C1604       C  0.97696279  0.70093106  0.30690735    -0.24000
H1605       H  0.93871039  0.72330705  0.26130983     0.09500
H1606       H  0.96429566  0.72536242  0.27019529     0.13000
H1607       H  0.90670547  0.69359335  0.28962728     0.11800
H1608       H  0.91924752  0.68539244  0.30514454     0.12900
H1609       H  0.94399978  0.68515868  0.31422634     0.12000
H1610       H  0.98618861  0.72794600  0.27912728     0.09100
H1611       H  0.00988030  0.72739907  0.28886700     0.12300
H1612       H  0.97467312  0.69362851  0.31477444     0.14200
C1613       C  0.83631747  0.66997770  0.19840664    -0.01300
C1614       C  0.82179974  0.66883499  0.19266507    -0.09300
C1615       C  0.81859526  0.66379664  0.18121823    -0.18200
C1616       C  0.82984177  0.65961862  0.17503743     0.04200
C1617       C  0.84436104  0.66044773  0.18092982     0.18400
C1618       C  0.84750797  0.66567766  0.19244338    -0.19600
C1619       C  0.85567577  0.65605120  0.17529433    -0.20900
C1620       C  0.85297381  0.65096147  0.16389792    -0.19400
C1621       C  0.83898577  0.65029880  0.15778064     0.19800
C1622       C  0.82723648  0.65466188  0.16325125     0.01900
C1623       C  0.81350247  0.65402661  0.15664236    -0.14100
C1624       C  0.81150669  0.64924736  0.14515193    -0.11900
C1625       C  0.82304398  0.64486674  0.13973577     0.01500
C1626       C  0.83676820  0.64540880  0.14618713    -0.24000
H1627       H  0.81291532  0.67209258  0.19696456     0.09500
H1628       H  0.80717872  0.66329858  0.17746730     0.13000
H1629       H  0.85864385  0.66622296  0.19677673     0.11800
H1630       H  0.86672540  0.65656068  0.17973605     0.12900
H1631       H  0.86199743  0.64765693  0.15980943     0.12000
H1632       H  0.80412406  0.65729005  0.16006354     0.09100
H1633       H  0.80081811  0.64912853  0.14053442     0.12300
H1634       H  0.84584597  0.64209086  0.14221714     0.14200
C1635       C  0.67512408  0.79566135  0.33978942    -0.01300
C1636       C  0.66305942  0.79795952  0.34630812    -0.09300
C1637       C  0.66303980  0.81381194  0.34615825    -0.18200
C1638       C  0.67515832  0.82806057  0.33942025     0.04200
C1639       C  0.68766105  0.82586869  0.33304192     0.18400
C1640       C  0.68752257  0.80983688  0.33326749    -0.19600
C1641       C  0.70018116  0.83965603  0.32639626    -0.20900
C1642       C  0.70046641  0.85557512  0.32586129    -0.19400
C1643       C  0.68814203  0.85807275  0.33187836     0.19800
C1644       C  0.67529581  0.84435214  0.33873862     0.01900
C1645       C  0.66302132  0.84748191  0.34450069    -0.14100
C1646       C  0.66348900  0.86349596  0.34350342    -0.11900
C1647       C  0.67617975  0.87706332  0.33676071     0.01500
C1648       C  0.68851901  0.87419942  0.33099286    -0.24000
H1649       H  0.65344475  0.78746353  0.35155939     0.09500
H1650       H  0.65333280  0.81444862  0.35141159     0.13000
H1651       H  0.69706179  0.80846555  0.32821750     0.11800
H1652       H  0.70980782  0.83810382  0.32154421     0.12900
H1653       H  0.71031172  0.86596157  0.32061656     0.12000
H1654       H  0.65276130  0.83777779  0.34978322     0.09100
H1655       H  0.65367552  0.86507001  0.34804897     0.12300
H1656       H  0.69844964  0.88446684  0.32574418     0.14200
C1657       C  0.79205605  0.70205827  0.27791187    -0.01300
C1658       C  0.79719712  0.71779417  0.28367002    -0.09300
C1659       C  0.78480859  0.72081578  0.28911011    -0.18200
C1660       C  0.76682685  0.70789137  0.28920454     0.04200
C1661       C  0.76182643  0.69166035  0.28371774     0.18400
C1662       C  0.77434403  0.68907346  0.27791280    -0.19600
C1663       C  0.74440836  0.67803107  0.28417773    -0.20900
C1664       C  0.73182845  0.68010189  0.29005556    -0.19400
C1665       C  0.73622218  0.69604471  0.29530978     0.19800
C1666       C  0.75369348  0.71031917  0.29473374     0.01900
C1667       C  0.75719564  0.72641071  0.29964984    -0.14100
C1668       C  0.74405318  0.72804804  0.30523469    -0.11900
C1669       C  0.72702716  0.71373178  0.30620779     0.01500
C1670       C  0.72320092  0.69779484  0.30112699    -0.24000
H1671       H  0.81085869  0.72795119  0.28379392     0.09500
H1672       H  0.78975930  0.73324455  0.29336044     0.13000
H1673       H  0.77038066  0.67675090  0.27361335     0.11800
H1674       H  0.74053146  0.66558247  0.28009497     0.12900
H1675       H  0.71851545  0.66919704  0.29039710     0.12000
H1676       H  0.76993411  0.73801624  0.29924777     0.09100
H1677       H  0.74740603  0.74054422  0.30901750     0.12300
H1678       H  0.70999307  0.68672892  0.30158103     0.14200
C1679       C  0.60976800  0.65404731  0.36090227    -0.01300
C1680       C  0.60329471  0.63743649  0.35601379    -0.09300
C1681       C  0.58997794  0.62251728  0.36131986    -0.18200
C1682       C  0.58276929  0.62369816  0.37184046     0.04200
C1683       C  0.58964607  0.64055208  0.37688319     0.18400
C1684       C  0.60282843  0.65548685  0.37134160    -0.19600
C1685       C  0.58344250  0.64240557  0.38748308    -0.20900
C1686       C  0.57063157  0.62785176  0.39325824    -0.19400
C1687       C  0.56344668  0.61111324  0.38847922     0.19800
C1688       C  0.56917018  0.60879084  0.37761087     0.01900
C1689       C  0.56093838  0.59166698  0.37299458    -0.14100
C1690       C  0.54785127  0.57746838  0.37902213    -0.11900
C1691       C  0.54265788  0.57978047  0.38986987     0.01500
C1692       C  0.55049551  0.59667110  0.39451990    -0.24000
H1693       H  0.60837304  0.63593743  0.34794035     0.09500
H1694       H  0.58575506  0.61023910  0.35702483     0.13000
H1695       H  0.60793074  0.66823370  0.37529792     0.11800
H1696       H  0.58866436  0.65519762  0.39139443     0.12900
H1697       H  0.56624749  0.62971919  0.40150886     0.12000
H1698       H  0.56421190  0.58882117  0.36471341     0.09100
H1699       H  0.54197226  0.56455750  0.37522647     0.12300
H1700       H  0.54631570  0.59866599  0.40280733     0.14200
C1701       C  0.75120515  0.62980010  0.05979171    -0.01300
C1702       C  0.75311141  0.63552555  0.04846067    -0.09300
C1703       C  0.73890424  0.63427330  0.04237381    -0.18200
C1704       C  0.72211887  0.62706900  0.04741361     0.04200
C1705       C  0.72015508  0.62103908  0.05886562     0.18400
C1706       C  0.73466289  0.62265894  0.06496174    -0.19600
C1707       C  0.70366960  0.61319144  0.06411206    -0.20900
C1708       C  0.68899988  0.61091407  0.05816151    -0.19400
C1709       C  0.69052233  0.61683978  0.04691283     0.19800
C1710       C  0.70717875  0.62538809  0.04145700     0.01900
C1711       C  0.70815271  0.63200386  0.03031361    -0.14100
C1712       C  0.69319080  0.62995120  0.02478824    -0.11900
C1713       C  0.67676660  0.62095268  0.03004431     0.01500
C1714       C  0.67548536  0.61438130  0.04109667    -0.24000
H1715       H  0.76571362  0.64116885  0.04424447     0.09500
H1716       H  0.74145825  0.63882729  0.03367973     0.13000
H1717       H  0.73292665  0.61792627  0.07366327     0.11800
H1718       H  0.70205608  0.60852826  0.07282874     0.12900
H1719       H  0.67638007  0.60454747  0.06241169     0.12000
H1720       H  0.72030577  0.63906172  0.02569529     0.09100
H1721       H  0.69443174  0.63520835  0.01626589     0.12300
H1722       H  0.66280283  0.60769201  0.04527031     0.14200
C1723       C  0.99246671  0.45971378  0.99034396    -0.01300
C1724       C  0.97924482  0.46090691  0.99627118    -0.09300
C1725       C  0.97858067  0.47640644  0.99636899    -0.18200
C1726       C  0.99121083  0.49146557  0.99050759     0.04200
C1727       C  0.00440947  0.49018386  0.98430038     0.18400
C1728       C  0.00494091  0.47446019  0.98428557    -0.19600
C1729       C  0.01705700  0.50463787  0.97818006    -0.20900
C1730       C  0.01695168  0.52039155  0.97814622    -0.19400
C1731       C  0.00427389  0.52215306  0.98429966     0.19800
C1732       C  0.99123895  0.50772800  0.99059567     0.01900
C1733       C  0.97889573  0.51027374  0.99677944    -0.14100
C1734       C  0.97943750  0.52637980  0.99668035    -0.11900
C1735       C  0.99225174  0.54060701  0.99044036     0.01500
C1736       C  0.00463116  0.53831872  0.98424342    -0.24000
H1737       H  0.96931330  0.44987864  0.00099856     0.09500
H1738       H  0.96798590  0.47612969  0.00114585     0.13000
H1739       H  0.01517235  0.47381988  0.97955143     0.11800
H1740       H  0.02713362  0.50376544  0.97339140     0.12900
H1741       H  0.02694061  0.53132067  0.97332372     0.12000
H1742       H  0.96865588  0.50011002  0.00183737     0.09100
H1743       H  0.96960031  0.52753314  0.00151823     0.12300
H1744       H  0.01472599  0.54915014  0.97943049     0.14200
C1745       C  0.12208130  0.75496229  0.93784240    -0.01300
C1746       C  0.11843002  0.75619462  0.94932204    -0.09300
C1747       C  0.10513112  0.74181829  0.95508988    -0.18200
C1748       C  0.09504848  0.72549145  0.94957969     0.04200
C1749       C  0.09905536  0.72414708  0.93799937     0.18400
C1750       C  0.11227776  0.73885603  0.93222292    -0.19600
C1751       C  0.08990209  0.70810334  0.93227628    -0.20900
C1752       C  0.07686907  0.69333640  0.93780512    -0.19400
C1753       C  0.07235785  0.69429962  0.94912914     0.19800
C1754       C  0.08122073  0.71045480  0.95514321     0.01900
C1755       C  0.07565969  0.71089057  0.96640548    -0.14100
C1756       C  0.06190781  0.69597478  0.97143800    -0.11900
C1757       C  0.05344796  0.68003124  0.96556701     0.01500
C1758       C  0.05886018  0.67923958  0.95443897    -0.24000
H1759       H  0.12572667  0.76845353  0.95387348     0.09500
H1760       H  0.10319357  0.74388630  0.96389875     0.13000
H1761       H  0.11514370  0.73765962  0.92338572     0.11800
H1762       H  0.09292751  0.70693189  0.92347176     0.12900
H1763       H  0.07012826  0.68110555  0.93314123     0.12000
H1764       H  0.08145257  0.72263021  0.97149526     0.09100
H1765       H  0.05799390  0.69688682  0.98005442     0.12300
H1766       H  0.05222549  0.66697935  0.94979137     0.14200
C1767       C  0.93726699  0.62038636  0.02244181    -0.01300
C1768       C  0.93169800  0.63217903  0.01928893    -0.09300
C1769       C  0.91889754  0.63346121  0.02559008    -0.18200
C1770       C  0.91133771  0.62308293  0.03543675     0.04200
C1771       C  0.91718293  0.61127675  0.03869122     0.18400
C1772       C  0.92982057  0.60986606  0.03212371    -0.19600
C1773       C  0.91055331  0.60111024  0.04856865    -0.20900
C1774       C  0.89840997  0.60258289  0.05539695    -0.19400
C1775       C  0.89228922  0.61399063  0.05240552     0.19800
C1776       C  0.89840880  0.62416583  0.04225910     0.01900
C1777       C  0.89124769  0.63491475  0.03937548    -0.14100
C1778       C  0.87875512  0.63567483  0.04632625    -0.11900
C1779       C  0.87312236  0.62601074  0.05646625     0.01500
C1780       C  0.87999309  0.61521655  0.05947669    -0.24000
H1781       H  0.93713916  0.64038481  0.01182236     0.09500
H1782       H  0.91540530  0.64290055  0.02261555     0.13000
H1783       H  0.93417875  0.60084409  0.03473807     0.11800
H1784       H  0.91496775  0.59210648  0.05111833     0.12900
H1785       H  0.89371865  0.59468107  0.06305947     0.12000
H1786       H  0.89487563  0.64276595  0.03174052     0.09100
H1787       H  0.87364883  0.64411271  0.04380736     0.12300
H1788       H  0.87548544  0.60747333  0.06721690     0.14200
C1789       C  0.62575461  0.87637513  0.94470302    -0.01300
C1790       C  0.61894071  0.88573954  0.93910193    -0.09300
C1791       C  0.61692232  0.89853844  0.94482460    -0.18200
C1792       C  0.62183835  0.90253728  0.95640178     0.04200
C1793       C  0.62913143  0.89328234  0.96196588     0.18400
C1794       C  0.63081916  0.88024607  0.95615224    -0.19600
C1795       C  0.63481555  0.89715905  0.97328724    -0.20900
C1796       C  0.63346307  0.91009464  0.97922970    -0.19400
C1797       C  0.62604490  0.91922403  0.97408380     0.19800
C1798       C  0.61990008  0.91542652  0.96263965     0.01900
C1799       C  0.61189293  0.92455031  0.95800688    -0.14100
C1800       C  0.61014839  0.93692422  0.96444333    -0.11900
C1801       C  0.61650841  0.94083926  0.97563085     0.01500
C1802       C  0.62455570  0.93201487  0.98037520    -0.24000
H1803       H  0.61490743  0.88302670  0.93026738     0.09500
H1804       H  0.61161958  0.90516277  0.93990992     0.13000
H1805       H  0.63641430  0.87332908  0.96052614     0.11800
H1806       H  0.64046974  0.89021341  0.97755979     0.12900
H1807       H  0.63809772  0.91285562  0.98796019     0.12000
H1808       H  0.60662623  0.92227270  0.94948819     0.09100
H1809       H  0.60396266  0.94363154  0.96055500     0.12300
H1810       H  0.62930690  0.93481034  0.98908289     0.14200
C1811       C  0.62505563  0.75124089  0.94601847    -0.01300
C1812       C  0.61646805  0.73473979  0.94081738    -0.09300
C1813       C  0.61321501  0.71970827  0.94683673    -0.18200
C1814       C  0.61878657  0.72075496  0.95827111     0.04200
C1815       C  0.62791790  0.73760856  0.96340566     0.18400
C1816       C  0.63064501  0.75254853  0.95735144    -0.19600
C1817       C  0.63456534  0.73950349  0.97448082    -0.20900
C1818       C  0.63276564  0.72506621  0.98047500    -0.19400
C1819       C  0.62375067  0.70829061  0.97569704     0.19800
C1820       C  0.61608399  0.70578775  0.96468551     0.01900
C1821       C  0.60605284  0.68841321  0.96060813    -0.14100
C1822       C  0.60440425  0.67425385  0.96698906    -0.11900
C1823       C  0.61292520  0.67695759  0.97749348     0.01500
C1824       C  0.62242410  0.69398315  0.98185650    -0.24000
H1825       H  0.61200552  0.73338175  0.93207515     0.09500
H1826       H  0.60664938  0.70751162  0.94222914     0.13000
H1827       H  0.63757241  0.76530688  0.96138449     0.11800
H1828       H  0.64156920  0.75231002  0.97843904     0.12900
H1829       H  0.63844283  0.72703532  0.98892358     0.12000
H1830       H  0.59922472  0.68533968  0.95256704     0.09100
H1831       H  0.59682171  0.66115270  0.96353475     0.12300
H1832       H  0.62867298  0.69607288  0.99012803     0.14200
C1833       C  0.67782765  0.83737406  0.80686686    -0.01300
C1834       C  0.67480257  0.84992831  0.81214402    -0.09300
C1835       C  0.67021104  0.84852945  0.82365129    -0.18200
C1836       C  0.66844519  0.83441450  0.83038243     0.04200
C1837       C  0.67156467  0.82172537  0.82504432     0.18400
C1838       C  0.67617345  0.82329191  0.81343912    -0.19600
C1839       C  0.67006437  0.80751020  0.83131670    -0.20900
C1840       C  0.66545716  0.80556458  0.84278597    -0.19400
C1841       C  0.66218237  0.81775764  0.84828372     0.19800
C1842       C  0.66365499  0.83238601  0.84218357     0.01900
C1843       C  0.66018405  0.84427195  0.84816579    -0.14100
C1844       C  0.65532691  0.84164788  0.85965029    -0.11900
C1845       C  0.65375761  0.82714107  0.86564965     0.01500
C1846       C  0.65733198  0.81530582  0.85985722    -0.24000
H1847       H  0.67586105  0.86094959  0.80740277     0.09500
H1848       H  0.66810917  0.85871927  0.82699925     0.13000
H1849       H  0.67853026  0.81348698  0.80958083     0.11800
H1850       H  0.67244823  0.79779304  0.82731766     0.12900
H1851       H  0.66437682  0.79438180  0.84738083     0.12000
H1852       H  0.66101900  0.85570551  0.84421869     0.09100
H1853       H  0.65272262  0.85110108  0.86376870     0.12300
H1854       H  0.65627936  0.80403956  0.86429251     0.14200
C1855       C  0.78964147  0.12308608  0.67118989    -0.01300
C1856       C  0.80140994  0.12658095  0.68020164    -0.09300
C1857       C  0.81772210  0.14186753  0.68038741    -0.18200
C1858       C  0.82292702  0.15431196  0.67148693     0.04200
C1859       C  0.81087014  0.15086070  0.66243267     0.18400
C1860       C  0.79444697  0.13541172  0.66237275    -0.19600
C1861       C  0.81529488  0.16282248  0.65345673    -0.20900
C1862       C  0.83140439  0.17822516  0.65329965    -0.19400
C1863       C  0.84356055  0.18202748  0.66207973     0.19800
C1864       C  0.83958442  0.17006784  0.67125940     0.01900
C1865       C  0.85248089  0.17442452  0.67978521    -0.14100
C1866       C  0.86846089  0.19008944  0.67930382    -0.11900
C1867       C  0.87222006  0.20200973  0.67035074     0.01500
C1868       C  0.85968313  0.19778264  0.66172785    -0.24000
H1869       H  0.79802279  0.11750361  0.68724029     0.09500
H1870       H  0.82592181  0.14354539  0.68764487     0.13000
H1871       H  0.78553998  0.13288715  0.65532128     0.11800
H1872       H  0.80619323  0.16028213  0.64651843     0.12900
H1873       H  0.83437018  0.18724896  0.64625202     0.12000
H1874       H  0.85064303  0.16603722  0.68696478     0.09100
H1875       H  0.87778542  0.19292816  0.68612050     0.12300
H1876       H  0.86245895  0.20670596  0.65465200     0.14200
C1877       C  0.71569336  0.98532594  0.69622373    -0.01300
C1878       C  0.72460595  0.98785826  0.70656123    -0.09300
C1879       C  0.72315948  0.97360546  0.71271377    -0.18200
C1880       C  0.71281516  0.95628509  0.70861806     0.04200
C1881       C  0.70457301  0.95392590  0.69782157     0.18400
C1882       C  0.70589515  0.96834227  0.69183628    -0.19600
C1883       C  0.69494379  0.93717678  0.69308326    -0.20900
C1884       C  0.69312463  0.92261536  0.69890292    -0.19400
C1885       C  0.70051288  0.92439773  0.70972901     0.19800
C1886       C  0.71030726  0.94123009  0.71481956     0.01900
C1887       C  0.71677481  0.94217629  0.72599633    -0.14100
C1888       C  0.71370865  0.92706125  0.73180941    -0.11900
C1889       C  0.70439682  0.91058626  0.72663908     0.01500
C1890       C  0.69791988  0.90936619  0.71557114    -0.24000
H1891       H  0.73237736  0.00088650  0.71007986     0.09500
H1892       H  0.73031998  0.97657762  0.72062034     0.13000
H1893       H  0.69931911  0.96632379  0.68369499     0.11800
H1894       H  0.68877124  0.93532098  0.68480792     0.12900
H1895       H  0.68561362  0.90982136  0.69499061     0.12000
H1896       H  0.72396952  0.95435165  0.73056007     0.09100
H1897       H  0.71887197  0.92832400  0.74035581     0.12300
H1898       H  0.69045224  0.89661658  0.71158841     0.14200
C1899       C  0.65218733  0.03889557  0.64121010    -0.01300
C1900       C  0.63542044  0.02562833  0.64442398    -0.09300
C1901       C  0.62051947  0.02309687  0.63853474    -0.18200
C1902       C  0.62191068  0.03370000  0.62907740     0.04200
C1903       C  0.63898148  0.04692566  0.62572049     0.18400
C1904       C  0.65382117  0.04953608  0.63186014    -0.19600
C1905       C  0.64118970  0.05735084  0.61615873    -0.20900
C1906       C  0.62682666  0.05476167  0.60972161    -0.19400
C1907       C  0.60984144  0.04196827  0.61283912     0.19800
C1908       C  0.60706210  0.03150612  0.62271499     0.01900
C1909       C  0.58954180  0.01941684  0.62579877    -0.14100
C1910       C  0.57547210  0.01757924  0.61921085    -0.11900
C1911       C  0.57836879  0.02743551  0.60925418     0.01500
C1912       C  0.59559201  0.03963142  0.60613507    -0.24000
H1913       H  0.63373172  0.01723229  0.65162739     0.09500
H1914       H  0.60812575  0.01257471  0.64149580     0.13000
H1915       H  0.66672667  0.05965292  0.62916520     0.11800
H1916       H  0.65416040  0.06742624  0.61353570     0.12900
H1917       H  0.62902084  0.06288706  0.60226620     0.12000
H1918       H  0.58627107  0.01133819  0.63331559     0.09100
H1919       H  0.56224690  0.00815871  0.62181775     0.12300
H1920       H  0.59790041  0.04757967  0.59856811     0.14200
C1921       C  0.86819160  0.65707667  0.67298379    -0.01300
C1922       C  0.85378406  0.64329689  0.66744390    -0.09300
C1923       C  0.83706803  0.64132924  0.66825939    -0.18200
C1924       C  0.83406740  0.65316218  0.67468080     0.04200
C1925       C  0.84865132  0.66712405  0.68030371     0.18400
C1926       C  0.86542748  0.66892154  0.67943824    -0.19600
C1927       C  0.84644332  0.67931132  0.68669839    -0.20900
C1928       C  0.83009966  0.67809207  0.68749875    -0.19400
C1929       C  0.81550812  0.66459847  0.68197560     0.19800
C1930       C  0.81721072  0.65180123  0.67560155     0.01900
C1931       C  0.80197988  0.63829961  0.67036449    -0.14100
C1932       C  0.78593284  0.63788411  0.67110513    -0.11900
C1933       C  0.78438119  0.65083876  0.67708713     0.01500
C1934       C  0.79925666  0.66399659  0.68267344    -0.24000
H1935       H  0.85527798  0.63384750  0.66240414     0.09500
H1936       H  0.82680079  0.63044588  0.66368663     0.13000
H1937       H  0.87632927  0.67969006  0.68377133     0.11800
H1938       H  0.85747984  0.68997438  0.69103281     0.12900
H1939       H  0.82889282  0.68785959  0.69241770     0.12000
H1940       H  0.80201474  0.62789292  0.66556127     0.09100
H1941       H  0.77475717  0.62736541  0.66683244     0.12300
H1942       H  0.79838958  0.67405939  0.68743978     0.14200
C1943       C  0.71175857  0.71908190  0.69789610    -0.01300
C1944       C  0.71906328  0.72415072  0.70879668    -0.09300
C1945       C  0.71786383  0.73719398  0.71481896    -0.18200
C1946       C  0.70942334  0.74581679  0.71005047     0.04200
C1947       C  0.70254244  0.74103248  0.69882376     0.18400
C1948       C  0.70354284  0.72762624  0.69294946    -0.19600
C1949       C  0.69472547  0.74967431  0.69351661    -0.20900
C1950       C  0.69346904  0.76291011  0.69914629    -0.19400
C1951       C  0.69964405  0.76758146  0.71032353     0.19800
C1952       C  0.70757443  0.75900052  0.71598890     0.01900
C1953       C  0.71300086  0.76377905  0.72741910    -0.14100
C1954       C  0.71059075  0.77645683  0.73296764    -0.11900
C1955       C  0.70295262  0.78500677  0.72731710     0.01500
C1956       C  0.69766457  0.78060881  0.71594080    -0.24000
H1957       H  0.72549448  0.71777884  0.71281380     0.09500
H1958       H  0.72378825  0.74029764  0.72315487     0.13000
H1959       H  0.69813305  0.72402099  0.68442966     0.11800
H1960       H  0.68957745  0.74620015  0.68492959     0.12900
H1961       H  0.68737619  0.76936231  0.69478157     0.12000
H1962       H  0.71888072  0.75776047  0.73238572     0.09100
H1963       H  0.71488794  0.77967320  0.74172985     0.12300
H1964       H  0.69152798  0.78698186  0.71153114     0.14200
C1965       C  0.65395120  0.60572970  0.63935750    -0.01300
C1966       C  0.64547804  0.61203989  0.63230569    -0.09300
C1967       C  0.63148048  0.60065848  0.62536531    -0.18200
C1968       C  0.62521783  0.58240725  0.62545112     0.04200
C1969       C  0.63375088  0.57607120  0.63275344     0.18400
C1970       C  0.64815655  0.58774541  0.63942001    -0.19600
C1971       C  0.62763336  0.55807730  0.63355210    -0.20900
C1972       C  0.61299460  0.54615899  0.62741434    -0.19400
C1973       C  0.60435203  0.55194620  0.62009955     0.19800
C1974       C  0.61056441  0.57017123  0.61879231     0.01900
C1975       C  0.60179411  0.57529471  0.61089518    -0.14100
C1976       C  0.58720298  0.56283342  0.60483154    -0.11900
C1977       C  0.58073547  0.54487786  0.60648216     0.01500
C1978       C  0.58948275  0.53956049  0.61409035    -0.24000
H1979       H  0.64976790  0.62590043  0.63209736     0.09500
H1980       H  0.62559447  0.60650241  0.62022870     0.13000
H1981       H  0.65449244  0.58273054  0.64498164     0.11800
H1982       H  0.63403513  0.55315405  0.63912504     0.12900
H1983       H  0.60841690  0.53229574  0.62838224     0.12000
H1984       H  0.60593103  0.58882884  0.60917195     0.09100
H1985       H  0.58075314  0.56732990  0.59898526     0.12300
H1986       H  0.58483428  0.52571679  0.61526078     0.14200
C1987       C  0.53586516  0.54159323  0.00754530    -0.01300
C1988       C  0.52205998  0.53974839  0.00061573    -0.09300
C1989       C  0.50570928  0.52458042  0.00093804    -0.18200
C1990       C  0.50249812  0.51051699  0.00823264     0.04200
C1991       C  0.51648636  0.51234931  0.01525794     0.18400
C1992       C  0.53291509  0.52778361  0.01489005    -0.19600
C1993       C  0.51403503  0.49870564  0.02254384    -0.20900
C1994       C  0.49804190  0.48316803  0.02289232    -0.19400
C1995       C  0.48404529  0.48092842  0.01603243     0.19800
C1996       C  0.48599649  0.49464180  0.00869821     0.01900
C1997       C  0.47135555  0.49181862  0.00211050    -0.14100
C1998       C  0.45562970  0.47594467  0.00259000    -0.11900
C1999       C  0.45382866  0.46227988  0.00963788     0.01500
C2000       C  0.46811318  0.46498066  0.01642327    -0.24000
H2001       H  0.52380492  0.54997348  0.99475087     0.09500
H2002       H  0.49593835  0.52425585  0.99526599     0.13000
H2003       H  0.54337548  0.52895989  0.02034675     0.11800
H2004       H  0.52461632  0.49999376  0.02793986     0.12900
H2005       H  0.49663246  0.47279894  0.02854625     0.12000
H2006       H  0.47159308  0.50156171  0.99645295     0.09100
H2007       H  0.44495125  0.47439468  0.99722543     0.12300
H2008       H  0.46691100  0.45468400  0.02205139     0.14200
C2009       C  0.24806674  0.36881504  0.94362720    -0.01300
C2010       C  0.25646521  0.35979287  0.93983120    -0.09300
C2011       C  0.27100620  0.36125619  0.94560112    -0.18200
C2012       C  0.27777965  0.37202796  0.95535344     0.04200
C2013       C  0.26943875  0.38147560  0.95900907     0.18400
C2014       C  0.25462196  0.37961639  0.95324337    -0.19600
C2015       C  0.27603593  0.39287461  0.96832547    -0.20900
C2016       C  0.29093834  0.39531012  0.97401857    -0.19400
C2017       C  0.29933510  0.38606106  0.97072093     0.19800
C2018       C  0.29265482  0.37397181  0.96150635     0.01900
C2019       C  0.30106892  0.36425050  0.95894141    -0.14100
C2020       C  0.31563989  0.36666944  0.96514893    -0.11900
C2021       C  0.32248532  0.37902850  0.97392988     0.01500
C2022       C  0.31431945  0.38872214  0.97666357    -0.24000
H2023       H  0.25164765  0.35133656  0.93243662     0.09500
H2024       H  0.27677916  0.35397526  0.94211394     0.13000
H2025       H  0.24840574  0.38690275  0.95613123     0.11800
H2026       H  0.26976416  0.40014825  0.97113348     0.12900
H2027       H  0.29586765  0.40441443  0.98110229     0.12000
H2028       H  0.29656238  0.35448857  0.95231711     0.09100
H2029       H  0.32173218  0.35897145  0.96297139     0.12300
H2030       H  0.31938371  0.39804258  0.98363271     0.14200
C2031       C  0.37953803  0.31917714  0.02678789    -0.01300
C2032       C  0.37061809  0.30287230  0.02133898    -0.09300
C2033       C  0.36785472  0.28761910  0.02685110    -0.18200
C2034       C  0.37379137  0.28814080  0.03813604     0.04200
C2035       C  0.38269374  0.30471594  0.04365721     0.18400
C2036       C  0.38562148  0.31998151  0.03793856    -0.19600
C2037       C  0.38849884  0.30596985  0.05490757    -0.20900
C2038       C  0.38559993  0.29110102  0.06085015    -0.19400
C2039       C  0.37698467  0.27460388  0.05566188     0.19800
C2040       C  0.37109129  0.27285989  0.04419278     0.01900
C2041       C  0.36278595  0.25590055  0.03932766    -0.14100
C2042       C  0.36026684  0.24133558  0.04563754    -0.11900
C2043       C  0.36582625  0.24308227  0.05701065     0.01500
C2044       C  0.37424754  0.25982942  0.06192296    -0.24000
H2045       H  0.36585624  0.30187613  0.01270244     0.09500
H2046       H  0.36088828  0.27561605  0.02208287     0.13000
H2047       H  0.39232585  0.33248018  0.04230286     0.11800
H2048       H  0.39524532  0.31854667  0.05917739     0.12900
H2049       H  0.39017036  0.29252859  0.06957923     0.12000
H2050       H  0.35810830  0.25344240  0.03066086     0.09100
H2051       H  0.35368806  0.22860224  0.04159065     0.12300
H2052       H  0.37888856  0.26147816  0.07063820     0.14200
loop_ 
_geom_bond_atom_site_label_1 
_geom_bond_atom_site_label_2 
_geom_bond_distance 
_geom_bond_site_symmetry_2 
_ccdc_geom_bond_type 
N1            N2   1.322       .  A
N1            C5   1.345       .  A
N1           Cu9   2.070       .  S
N2            C3   1.343       .  A
N2           Cu8   2.068       .  S
C3            C4   1.382       .  A
C3            H6   1.082       .  S
C4            C5   1.384       .  A
C4         C2021   1.474       .  S
C5            H7   1.082       .  S
Cu8          N11   2.069   1_556  S
Cu9          N19   2.071   1_556  S
Cu10         N12   2.080       .  S
Cu10         N18   2.079       .  S
N11          N12   1.321       .  A
N11          C15   1.344       .  A
N12          C13   1.346       .  A
C13          C14   1.388       .  A
C13          H16   1.082       .  S
C14          C15   1.385       .  A
C14        C2031   1.483       .  S
C15          H17   1.082       .  S
N18          N19   1.321       .  A
N18          C22   1.345       .  A
N19          C20   1.343       .  A
C20          C21   1.388       .  A
C20          H23   1.081   1_554  S
C21          C22   1.389       .  A
C21        C1999   1.487       .  S
C22          H24   1.081       .  S
N25          N26   1.323       .  A
N25          C29   1.346       .  A
N25         Cu33   2.079       .  S
N26          C27   1.346       .  A
N26         Cu32   2.081       .  S
C27          C28   1.385       .  A
C27          H30   1.082       .  S
C28          C29   1.385       .  A
C28        C1965   1.481       .  S
C29          H31   1.082       .  S
Cu32         N35   2.081       .  S
Cu33         N43   2.078       .  S
Cu34         N36   2.074       .  S
Cu34         N42   2.074       .  S
N35          N36   1.322       .  A
N35          C39   1.347       .  A
N36          C37   1.344       .  A
C37          C38   1.385       .  A
C37          H40   1.082       .  S
C38          C39   1.387       .  A
C38        C1943   1.482       .  S
C39          H41   1.082       .  S
N42          N43   1.321       .  A
N42          C46   1.345       .  A
N43          C44   1.345       .  A
C44          C45   1.390       .  A
C44          H47   1.081       .  S
C45          C46   1.389       .  A
C45        C1933   1.491       .  S
C46          H48   1.081       .  S
N49          N50   1.320       .  A
N49          C53   1.344       .  A
N49         Cu57   2.065       .  S
N50          C51   1.344       .  A
N50         Cu56   2.072       .  S
C51          C52   1.386       .  A
C51          H54   1.082   1_545  S
C52          C53   1.384       .  A
C52        C1877   1.478   1_545  S
C53          H55   1.082       .  S
Cu56         N59   2.073       .  S
Cu57         N67   2.065       .  S
Cu58         N60   2.087       .  S
Cu58         N66   2.087       .  S
N59          N60   1.323       .  A
N59          C63   1.345       .  A
N60          C61   1.347       .  A
C61          C62   1.388       .  A
C61          H64   1.082       .  S
C62          C63   1.385       .  A
C62        C1899   1.485       .  S
C63          H65   1.082       .  S
N66          N67   1.322       .  A
N66          C70   1.348       .  A
N67          C68   1.342       .  A
C68          C69   1.385       .  A
C68          H71   1.081       .  S
C69          C70   1.391       .  A
C69        C1855   1.486       .  S
C70          H72   1.081       .  S
N73          N74   1.321       .  A
N73          C77   1.344       .  A
N73         Cu81   2.068       .  S
N74          C75   1.345       .  A
N74         Cu80   2.075       .  S
C75          C76   1.385       .  A
C75          H78   1.082       .  S
C76          C77   1.384       .  A
C76        C1889   1.478       .  S
C77          H79   1.082       .  S
Cu80         N83   2.076       .  S
Cu81         N91   2.068       .  S
Cu82         N84   2.083       .  S
Cu82         N90   2.082       .  S
N83          N84   1.323       .  A
N83          C87   1.346       .  A
N84          C85   1.345       .  A
C85          C86   1.387       .  A
C85          H88   1.082       .  S
C86          C87   1.386       .  A
C86        C1955   1.483       .  S
C87          H89   1.082       .  S
N90          N91   1.320       .  A
N90          C94   1.347       .  A
N91          C92   1.343       .  A
C92          C93   1.388       .  A
C92          H95   1.081       .  S
C93          C94   1.391       .  A
C93        C1833   1.490       .  S
C94          H96   1.081       .  S
N97          N98   1.321       .  A
N97         C101   1.345       .  A
N97        Cu105   2.075       .  S
N98          C99   1.345       .  A
N98        Cu104   2.075       .  S
C99         C100   1.387       .  A
C99         H102   1.082       .  S
C100        C101   1.387       .  A
C100       C1789   1.483       .  S
C101        H103   1.082       .  S
Cu104       N107   2.075       .  S
Cu105       N115   2.075       .  S
Cu106       N108   2.080       .  S
Cu106       N114   2.080       .  S
N107        N108   1.322       .  A
N107        C111   1.345       .  A
N108        C109   1.346       .  A
C109        C110   1.387       .  A
C109        H112   1.082       .  S
C110        C111   1.385       .  A
C110       C1811   1.482       .  S
C111        H113   1.082       .  S
N114        N115   1.321       .  A
N114        C118   1.346       .  A
N115        C116   1.344       .  A
C116        C117   1.389       .  A
C116        H119   1.081       .  S
C117        C118   1.390       .  A
C117       C1845   1.491       .  S
C118        H120   1.081       .  S
N121        N122   1.323       .  A
N121        C125   1.348       .  A
N121       Cu129   2.083       .  S
N122        C123   1.346       .  A
N122       Cu128   2.088   1_455  S
C123        C124   1.386       .  A
C123        H126   1.082       .  S
C124        C125   1.385       .  A
C124       C1757   1.483       .  S
C125        H127   1.082       .  S
Cu128       N131   2.087   1_556  S
Cu129       N139   2.083   1_455  S
Cu130       N132   2.071       .  S
Cu130       N138   2.071   1_554  S
N131        N132   1.321       .  A
N131        C135   1.347       .  A
N132        C133   1.346       .  A
C133        C134   1.386       .  A
C133        H136   1.082       .  S
C134        C135   1.389       .  A
C134       C1767   1.485       .  S
C135        H137   1.082       .  S
N138        N139   1.321       .  A
N138        C142   1.343       .  A
N139        C140   1.347   1_655  A
C140        C141   1.391   1_455  A
C140        H143   1.081       .  S
C141        C142   1.388       .  A
C141       C1735   1.490       .  S
C142        H144   1.081   1_556  S
N145        N146   1.321       .  A
N145        C149   1.345       .  A
N145       Cu153   2.068       .  S
N146        C147   1.346       .  A
N146       Cu152   2.077   1_556  S
C147        C148   1.386       .  A
C147        H150   1.082       .  S
C148        C149   1.384       .  A
C148       C1823   1.477       .  S
C149        H151   1.082       .  S
Cu152       N155   2.078       .  S
Cu153       N163   2.067   1_556  S
Cu154       N156   2.078       .  S
Cu154       N162   2.077       .  S
N155        N156   1.324       .  A
N155        C159   1.345       .  A
N156        C157   1.346       .  A
C157        C158   1.383       .  A
C157        H160   1.082       .  S
C158        C159   1.383       .  A
C158       C1713   1.476       .  S
C159        H161   1.082       .  S
N162        N163   1.321       .  A
N162        C166   1.347       .  A
N163        C164   1.341       .  A
C164        C165   1.387       .  A
C164        H167   1.081   1_554  S
C165        C166   1.390       .  A
C165       C1987   1.487       .  S
C166        H168   1.081       .  S
N169        N170   1.322       .  A
N169        C173   1.346       .  A
N169       Cu177   2.081       .  S
N170        C171   1.344       .  A
N170       Cu176   2.075       .  S
C171        C172   1.385       .  A
C171        H174   1.082       .  S
C172        C173   1.387       .  A
C172       C1679   1.483       .  S
C173        H175   1.082       .  S
Cu176       N179   2.076       .  S
Cu177       N187   2.081       .  S
Cu178       N180   2.072       .  S
Cu178       N186   2.071       .  S
N179        N180   1.321       .  A
N179        C183   1.345       .  A
N180        C181   1.345       .  A
C181        C182   1.387       .  A
C181        H184   1.081       .  S
C182        C183   1.388       .  A
C182       C1669   1.485       .  S
C183        H185   1.082       .  S
N186        N187   1.321       .  A
N186        C190   1.343       .  A
N187        C188   1.346       .  A
C188        C189   1.391       .  A
C188        H191   1.081       .  S
C189        C190   1.388       .  A
C189       C1635   1.490       .  S
C190        H192   1.081       .  S
N193        N194   1.323       .  A
N193        C197   1.347       .  A
N193       Cu201   2.088       .  S
N194        C195   1.347       .  A
N194       Cu200   2.083       .  S
C195        C196   1.386       .  A
C195        H198   1.082       .  S
C196        C197   1.386       .  A
C196       C1591   1.483       .  S
C197        H199   1.082       .  S
Cu200       N203   2.082       .  S
Cu201       N211   2.088       .  S
Cu202       N204   2.079       .  S
Cu202       N210   2.080       .  S
N203        N204   1.323       .  A
N203        C207   1.347       .  A
N204        C205   1.346       .  A
C205        C206   1.384       .  A
C205        H208   1.082       .  S
C206        C207   1.385       .  A
C206       C1657   1.478       .  S
C207        H209   1.082       .  S
N210        N211   1.322       .  A
N210        C214   1.345       .  A
N211        C212   1.348       .  A
C212        C213   1.390       .  A
C212        H215   1.081       .  S
C213        C214   1.388       .  A
C213       C1613   1.491       .  S
C214        H216   1.081       .  S
N217        N218   1.323       .  A
N217        C221   1.350       .  A
N217       Cu225   2.095       .  S
N218        C219   1.343       .  A
N218       Cu224   2.070       .  S
C219        C220   1.383       .  A
C219        H222   1.082       .  S
C220        C221   1.389       .  A
C220       C1779   1.483       .  S
C221        H223   1.082       .  S
Cu224       N227   2.069       .  S
Cu225       N235   2.096       .  S
Cu226       N228   2.073       .  S
Cu226       N234   2.074       .  S
N227        N228   1.320       .  A
N227        C231   1.343       .  A
N228        C229   1.346       .  A
C229        C230   1.388       .  A
C229        H232   1.082       .  S
C230        C231   1.387       .  A
C230       C1701   1.484       .  S
C231        H233   1.081       .  S
N234        N235   1.322       .  A
N234        C238   1.343       .  A
N235        C236   1.350       .  A
C236        C237   1.393       .  A
C236        H239   1.081       .  S
C237        C238   1.388       .  A
C237       C1625   1.495       .  S
C238        H240   1.081       .  S
N241        N242   1.322       .  A
N241        C245   1.345       .  A
N241       Cu249   2.075       .  S
N242        C243   1.348       .  A
N242       Cu248   2.089       .  S
C243        C244   1.389       .  A
C243        H246   1.082   1_455  S
C244        C245   1.386       .  A
C244       C1603   1.486   1_455  S
C245        H247   1.082       .  S
Cu248       N251   2.089       .  S
Cu249       N259   2.075       .  S
Cu250       N252   2.084       .  S
Cu250       N258   2.083       .  S
N251        N252   1.323       .  A
N251        C255   1.347       .  A
N252        C253   1.347       .  A
C253        C254   1.387       .  A
C253        H256   1.082       .  S
C254        C255   1.387       .  A
C254       C1569   1.485       .  S
C255        H257   1.082       .  S
N258        N259   1.321       .  A
N258        C262   1.346       .  A
N259        C260   1.345       .  A
C260        C261   1.388       .  A
C260        H263   1.081       .  S
C261        C262   1.390       .  A
C261       C1559   1.489       .  S
C262        H264   1.081       .  S
N265        N266   1.322       .  A
N265        C269   1.343       .  A
N265       Cu273   2.067       .  S
N266        C267   1.347       .  A
N266       Cu272   2.080   1_556  S
C267        C268   1.387       .  A
C267        H270   1.082       .  S
C268        C269   1.383       .  A
C268       C1801   1.480       .  S
C269        H271   1.082       .  S
Cu272       N275   2.080   1_565  S
Cu273       N283   2.067   1_565  S
Cu274       N276   2.071       .  S
Cu274       N282   2.070   1_554  S
N275        N276   1.323       .  A
N275        C279   1.346       .  A
N276        C277   1.343       .  A
C277        C278   1.384       .  A
C277        H280   1.082       .  S
C278        C279   1.386       .  A
C278       C1525   1.479       .  S
C279        H281   1.082       .  S
N282        N283   1.319       .  A
N282        C286   1.344       .  A
N283        C284   1.343   1_545  A
C284        C285   1.389   1_565  A
C284        H287   1.081       .  S
C285        C286   1.390       .  A
C285       C1503   1.488       .  S
C286        H288   1.081   1_556  S
N289        N290   1.322       .  A
N289        C293   1.346       .  A
N289       Cu297   2.076       .  S
N290        C291   1.346       .  A
N290       Cu296   2.082       .  S
C291        C292   1.387       .  A
C291        H294   1.082       .  S
C292        C293   1.387       .  A
C292       C1977   1.484       .  S
C293        H295   1.082       .  S
Cu296       N299   2.081       .  S
Cu297       N307   2.075       .  S
Cu298       N300   2.079       .  S
Cu298       N306   2.078       .  S
N299        N300   1.322       .  A
N299        C303   1.346       .  A
N300        C301   1.347       .  A
C301        C302   1.386       .  A
C301        H304   1.082       .  S
C302        C303   1.386       .  A
C302       C1459   1.483       .  S
C303        H305   1.082       .  S
N306        N307   1.321       .  A
N306        C310   1.344       .  A
N307        C308   1.345       .  A
C308        C309   1.388       .  A
C308        H311   1.081       .  S
C309        C310   1.388       .  A
C309       C1481   1.486       .  S
C310        H312   1.081       .  S
N313        N314   1.321       .  A
N313        C317   1.344       .  A
N313       Cu321   2.074       .  S
N314        C315   1.345       .  A
N314       Cu320   2.071       .  S
C315        C316   1.386       .  A
C315        H318   1.082       .  S
C316        C317   1.386       .  A
C316       C1691   1.481       .  S
C317        H319   1.082       .  S
Cu320       N323   2.071       .  S
Cu321       N331   2.075       .  S
Cu322       N324   2.069       .  S
Cu322       N330   2.069       .  S
N323        N324   1.321       .  A
N323        C327   1.343       .  A
N324        C325   1.345       .  A
C325        C326   1.386       .  A
C325        H328   1.082       .  S
C326        C327   1.386       .  A
C326       C1437   1.480       .  S
C327        H329   1.082       .  S
N330        N331   1.321       .  A
N330        C334   1.344       .  A
N331        C332   1.344       .  A
C332        C333   1.389       .  A
C332        H335   1.081       .  S
C333        C334   1.388       .  A
C333       C1493   1.487       .  S
C334        H336   1.081       .  S
N337        N338   1.322       .  A
N337        C341   1.346       .  A
N337       Cu345   2.083       .  S
N338        C339   1.345       .  A
N338       Cu344   2.070       .  S
C339        C340   1.383       .  A
C339        H342   1.082       .  S
C340        C341   1.386       .  A
C340       C1405   1.478       .  S
C341        H343   1.082       .  S
Cu344       N347   2.069       .  S
Cu345       N355   2.083       .  S
Cu346       N348   2.072       .  S
Cu346       N354   2.073       .  S
N347        N348   1.322       .  A
N347        C351   1.345       .  A
N348        C349   1.345       .  A
C349        C350   1.383       .  A
C349        H352   1.082       .  S
C350        C351   1.382       .  A
C350       C1415   1.473   1_655  S
C351        H353   1.082   1_655  S
N354        N355   1.322       .  A
N354        C358   1.344       .  A
N355        C356   1.346       .  A
C356        C357   1.389       .  A
C356        H359   1.081       .  S
C357        C358   1.387       .  A
C357       C1867   1.487       .  S
C358        H360   1.081       .  S
N361        N362   1.322       .  A
N361        C365   1.344       .  A
N361       Cu369   2.067       .  S
N362        C363   1.346       .  A
N362       Cu368   2.078       .  S
C363        C364   1.386       .  A
C363        H366   1.082       .  S
C364        C365   1.384       .  A
C364       C1427   1.478       .  S
C365        H367   1.082       .  S
Cu368       N371   2.078       .  S
Cu369       N379   2.067       .  S
Cu370       N372   2.079       .  S
Cu370       N378   2.078       .  S
N371        N372   1.323       .  A
N371        C375   1.346       .  A
N372        C373   1.346       .  A
C373        C374   1.385       .  A
C373        H376   1.082       .  S
C374        C375   1.385       .  A
C374       C1349   1.480       .  S
C375        H377   1.082       .  S
N378        N379   1.321       .  A
N378        C382   1.345       .  A
N379        C380   1.343       .  A
C380        C381   1.388       .  A
C380        H383   1.081       .  S
C381        C382   1.390       .  A
C381       C1371   1.487       .  S
C382        H384   1.081       .  S
N385        N386   1.321       .  A
N385        C389   1.344       .  A
N385       Cu393   2.067       .  S
N386        C387   1.344       .  A
N386       Cu392   2.069       .  S
C387        C388   1.385       .  A
C387        H390   1.082       .  S
C388        C389   1.385       .  A
C388       C2009   1.479       .  S
C389        H391   1.082       .  S
Cu392       N395   2.070       .  S
Cu393       N403   2.067       .  S
Cu394       N396   2.082       .  S
Cu394       N402   2.081       .  S
N395        N396   1.322       .  A
N395        C399   1.344       .  A
N396        C397   1.346       .  A
C397        C398   1.386       .  A
C397        H400   1.082       .  S
C398        C399   1.383       .  A
C398       C1327   1.479       .  S
C399        H401   1.082       .  S
N402        N403   1.322       .  A
N402        C406   1.346       .  A
N403        C404   1.343       .  A
C404        C405   1.385       .  A
C404        H407   1.081       .  S
C405        C406   1.388       .  A
C405       C1383   1.482       .  S
C406        H408   1.082       .  S
N409        N410   1.322       .  A
N409        C413   1.348       .  A
N409       Cu417   2.083       .  S
N410        C411   1.346       .  A
N410       Cu416   2.079       .  S
C411        C412   1.385       .  A
C411        H414   1.082       .  S
C412        C413   1.387       .  A
C412       C1471   1.483       .  S
C413        H415   1.082       .  S
Cu416       N419   2.079       .  S
Cu417       N427   2.083       .  S
Cu418       N420   2.084       .  S
Cu418       N426   2.085       .  S
N419        N420   1.323       .  A
N419        C423   1.346       .  A
N420        C421   1.346       .  A
C421        C422   1.387       .  A
C421        H424   1.082       .  S
C422        C423   1.386       .  A
C422       C1361   1.484       .  S
C423        H425   1.082       .  S
N426        N427   1.322       .  A
N426        C430   1.347       .  A
N427        C428   1.345       .  A
C428        C429   1.390       .  A
C428        H431   1.081       .  S
C429        C430   1.391       .  A
C429       C1305   1.493       .  S
C430        H432   1.081       .  S
N433        N434   1.322       .  A
N433        C437   1.346       .  A
N433       Cu441   2.081       .  S
N434        C435   1.344       .  A
N434       Cu440   2.073       .  S
C435        C436   1.385       .  A
C435        H438   1.082       .  S
C436        C437   1.387       .  A
C436       C1261   1.481       .  S
C437        H439   1.082       .  S
Cu440       N443   2.073       .  S
Cu441       N451   2.081       .  S
Cu442       N444   2.079       .  S
Cu442       N450   2.080       .  S
N443        N444   1.322       .  A
N443        C447   1.345       .  A
N444        C445   1.346       .  A
C445        C446   1.385       .  A
C445        H448   1.082       .  S
C446        C447   1.384       .  A
C446       C1239   1.479       .  S
C447        H449   1.082       .  S
N450        N451   1.322       .  A
N450        C454   1.344       .  A
N451        C452   1.347       .  A
C452        C453   1.389       .  A
C452        H455   1.081       .  S
C453        C454   1.389       .  A
C453       C1295   1.490       .  S
C454        H456   1.081       .  S
N457        N458   1.323       .  A
N457        C461   1.346       .  A
N457       Cu465   2.087       .  S
N458        C459   1.346       .  A
N458       Cu464   2.077       .  S
C459        C460   1.387       .  A
C459        H462   1.081       .  S
C460        C461   1.389       .  A
C460       C2043   1.488       .  S
C461        H463   1.081       .  S
Cu464       N467   2.076       .  S
Cu465       N475   2.087       .  S
Cu466       N468   2.074       .  S
Cu466       N474   2.074       .  S
N467        N468   1.321       .  A
N467        C471   1.345       .  A
N468        C469   1.345       .  A
C469        C470   1.386       .  A
C469        H472   1.082       .  S
C470        C471   1.386       .  A
C470       C1217   1.481       .  S
C471        H473   1.082       .  S
N474        N475   1.321       .  A
N474        C478   1.343       .  A
N475        C476   1.349       .  A
C476        C477   1.392       .  A
C476        H479   1.081       .  S
C477        C478   1.389       .  A
C477       C1283   1.493       .  S
C478        H480   1.081       .  S
N481        N482   1.323       .  A
N481        C485   1.347       .  A
N481       Cu489   2.081       .  S
N482        C483   1.345       .  A
N482       Cu488   2.078       .  S
C483        C484   1.384       .  A
C483        H486   1.082       .  S
C484        C485   1.385       .  A
C484       C1207   1.479       .  S
C485        H487   1.082       .  S
Cu488       N491   2.078       .  S
Cu489       N499   2.081       .  S
Cu490       N492   2.076       .  S
Cu490       N498   2.076       .  S
N491        N492   1.322       .  A
N491        C495   1.346       .  A
N492        C493   1.345       .  A
C493        C494   1.386       .  A
C493        H496   1.082       .  S
C494        C495   1.387       .  A
C494       C1251   1.483   1_565  S
C495        H497   1.082   1_565  S
N498        N499   1.321       .  A
N498        C502   1.345       .  A
N499        C500   1.345       .  A
C500        C501   1.390       .  A
C500        H503   1.081       .  S
C501        C502   1.389       .  A
C501       C1547   1.491       .  S
C502        H504   1.081       .  S
N505        N506   1.322       .  A
N505        C509   1.346       .  A
N505       Cu513   2.080       .  S
N506        C507   1.346       .  A
N506       Cu512   2.076   1_565  S
C507        C508   1.384       .  A
C507        H510   1.082       .  S
C508        C509   1.386       .  A
C508       C1185   1.479       .  S
C509        H511   1.082       .  S
Cu512       N515   2.076   1_556  S
Cu513       N523   2.080       .  S
Cu514       N516   2.074       .  S
Cu514       N522   2.073       .  S
N515        N516   1.321       .  A
N515        C519   1.344       .  A
N516        C517   1.345       .  A
C517        C518   1.387       .  A
C517        H520   1.082       .  S
C518        C519   1.387       .  A
C518       C1229   1.484       .  S
C519        H521   1.082       .  S
N522        N523   1.321   1_544  A
N522        C526   1.344       .  A
N523        C524   1.346       .  A
C524        C525   1.389   1_565  A
C524        H527   1.081       .  S
C525        C526   1.388   1_556  A
C525       C1515   1.487       .  S
C526        H528   1.081       .  S
N529        N530   1.322       .  A
N529        C533   1.344       .  A
N529       Cu537   2.073       .  S
N530        C531   1.346       .  A
N530       Cu536   2.073       .  S
C531        C532   1.385       .  A
C531        H534   1.082       .  S
C532        C533   1.384       .  A
C532       C1273   1.478       .  S
C533        H535   1.082       .  S
Cu536       N539   2.073       .  S
Cu537       N547   2.073       .  S
Cu538       N540   2.071       .  S
Cu538       N546   2.071       .  S
N539        N540   1.322       .  A
N539        C543   1.343       .  A
N540        C541   1.345       .  A
C541        C542   1.385       .  A
C541        H544   1.082       .  S
C542        C543   1.385       .  A
C542       C1449   1.479       .  S
C543        H545   1.082       .  S
N546        N547   1.321       .  A
N546        C550   1.344       .  A
N547        C548   1.345       .  A
C548        C549   1.387       .  A
C548        H551   1.081       .  S
C549        C550   1.387       .  A
C549       C1151   1.483       .  S
C550        H552   1.081       .  S
N553        N554   1.321       .  A
N553        C557   1.345       .  A
N553       Cu561   2.066       .  S
N554        C555   1.344       .  A
N554       Cu560   2.074       .  S
C555        C556   1.385       .  A
C555        H558   1.082       .  S
C556        C557   1.384       .  A
C556       C1537   1.478       .  S
C557        H559   1.082       .  S
Cu560       N563   2.074       .  S
Cu561       N571   2.066       .  S
Cu562       N564   2.067       .  S
Cu562       N570   2.067       .  S
N563        N564   1.322       .  A
N563        C567   1.345       .  A
N564        C565   1.343       .  A
C565        C566   1.384       .  A
C565        H568   1.082       .  S
C566        C567   1.385       .  A
C566       C1119   1.477       .  S
C567        H569   1.082       .  S
N570        N571   1.320       .  A
N570        C574   1.344       .  A
N571        C572   1.342       .  A
C572        C573   1.388       .  A
C572        H575   1.081       .  S
C573        C574   1.388       .  A
C573       C1129   1.484       .  S
C574        H576   1.081       .  S
N577        N578   1.322       .  A
N577        C581   1.345       .  A
N577       Cu585   2.071       .  S
N578        C579   1.344       .  A
N578       Cu584   2.071       .  S
C579        C580   1.383       .  A
C579        H582   1.082       .  S
C580        C581   1.384       .  A
C580       C1097   1.475       .  S
C581        H583   1.082       .  S
Cu584       N587   2.070       .  S
Cu585       N595   2.071       .  S
Cu586       N588   2.065       .  S
Cu586       N594   2.065       .  S
N587        N588   1.321       .  A
N587        C591   1.344       .  A
N588        C589   1.343       .  A
C589        C590   1.383       .  A
C589        H592   1.082       .  S
C590        C591   1.385       .  A
C590       C1063   1.475       .  S
C591        H593   1.082       .  S
N594        N595   1.320       .  A
N594        C598   1.342       .  A
N595        C596   1.343       .  A
C596        C597   1.389       .  A
C596        H599   1.081       .  S
C597        C598   1.387       .  A
C597       C1141   1.486       .  S
C598        H600   1.081       .  S
N601        N602   1.322       .  A
N601        C605   1.346       .  A
N601       Cu609   2.083       .  S
N602        C603   1.344       .  A
N602       Cu608   2.069       .  S
C603        C604   1.384       .  A
C603        H606   1.082       .  S
C604        C605   1.387       .  A
C604       C1339   1.481       .  S
C605        H607   1.082       .  S
Cu608       N611   2.068   1_456  S
Cu609       N619   2.083       .  S
Cu610       N612   2.070       .  S
Cu610       N618   2.071   1_554  S
N611        N612   1.321       .  A
N611        C615   1.343       .  A
N612        C613   1.345       .  A
C613        C614   1.384       .  A
C613        H616   1.082       .  S
C614        C615   1.384       .  A
C614       C1107   1.475       .  S
C615        H617   1.082       .  S
N618        N619   1.321   1_655  A
N618        C622   1.342       .  A
N619        C620   1.347       .  A
C620        C621   1.391   1_455  A
C620        H623   1.081       .  S
C621        C622   1.388       .  A
C621       C1723   1.491       .  S
C622        H624   1.081   1_556  S
N625        N626   1.323       .  A
N625        C629   1.346       .  A
N625       Cu633   2.080       .  S
N626        C627   1.344       .  A
N626       Cu632   2.073       .  S
C627        C628   1.383       .  A
C627        H630   1.082   1_565  S
C628        C629   1.385       .  A
C628       C1085   1.477   1_565  S
C629        H631   1.082       .  S
Cu632       N635   2.073       .  S
Cu633       N643   2.080       .  S
Cu634       N636   2.069       .  S
Cu634       N642   2.069       .  S
N635        N636   1.320       .  A
N635        C639   1.345       .  A
N636        C637   1.344       .  A
C637        C638   1.387       .  A
C637        H640   1.081       .  S
C638        C639   1.389       .  A
C638       C1041   1.485       .  S
C639        H641   1.081       .  S
N642        N643   1.321       .  A
N642        C646   1.342       .  A
N643        C644   1.347       .  A
C644        C645   1.391       .  A
C644        H647   1.081       .  S
C645        C646   1.388       .  A
C645       C1647   1.490       .  S
C646        H648   1.080       .  S
N649        N650   1.321       .  A
N649        C653   1.346       .  A
N649       Cu657   2.079       .  S
N650        C651   1.345       .  A
N650       Cu656   2.073       .  S
C651        C652   1.386       .  A
C651        H654   1.082       .  S
C652        C653   1.387       .  A
C652       C1195   1.482       .  S
C653        H655   1.082       .  S
Cu656       N659   2.073       .  S
Cu657       N667   2.080       .  S
Cu658       N660   2.080       .  S
Cu658       N666   2.080       .  S
N659        N660   1.322       .  A
N659        C663   1.344       .  A
N660        C661   1.347       .  A
C661        C662   1.386       .  A
C661        H664   1.082       .  S
C662        C663   1.384       .  A
C662       C1053   1.479       .  S
C663        H665   1.082       .  S
N666        N667   1.322       .  A
N666        C670   1.346       .  A
N667        C668   1.345       .  A
C668        C669   1.389       .  A
C668        H671   1.081       .  S
C669        C670   1.389       .  A
C669       C1019   1.490       .  S
C670        H672   1.081       .  S
N673        N674   1.322       .  A
N673        C677   1.348       .  A
N673       Cu681   2.086       .  S
N674        C675   1.344       .  A
N674       Cu680   2.075       .  S
C675        C676   1.387       .  A
C675        H678   1.081       .  S
C676        C677   1.390       .  A
C676        C997   1.488       .  S
C677        H679   1.082       .  S
Cu680       N683   2.075       .  S
Cu681       N691   2.085       .  S
Cu682       N684   2.079       .  S
Cu682       N690   2.079       .  S
N683        N684   1.322       .  A
N683        C687   1.346       .  A
N684        C685   1.346       .  A
C685        C686   1.386       .  A
C685        H688   1.082       .  S
C686        C687   1.385       .  A
C686       C1911   1.480       .  S
C687        H689   1.082       .  S
N690        N691   1.322       .  A
N690        C694   1.346       .  A
N691        C692   1.345       .  A
C692        C693   1.391       .  A
C692        H695   1.081       .  S
C693        C694   1.390       .  A
C693       C1031   1.492       .  S
C694        H696   1.081       .  S
N697        N698   1.321       .  A
N697        C701   1.344       .  A
N697       Cu705   2.079       .  S
N698        C699   1.346       .  A
N698       Cu704   2.071       .  S
C699        C700   1.386       .  A
C699        H702   1.082       .  S
C700        C701   1.387       .  A
C700       C1393   1.483       .  S
C701        H703   1.082       .  S
Cu704       N707   2.071       .  S
Cu705       N715   2.079       .  S
Cu706       N708   2.081       .  S
Cu706       N714   2.082       .  S
N707        N708   1.322       .  A
N707        C711   1.342       .  A
N708        C709   1.348       .  A
C709        C710   1.387       .  A
C709        H712   1.082       .  S
C710        C711   1.383       .  A
C710        C953   1.479       .  S
C711        H713   1.082       .  S
N714        N715   1.322       .  A
N714        C718   1.345       .  A
N715        C716   1.346       .  A
C716        C717   1.390       .  A
C716        H719   1.081       .  S
C717        C718   1.390       .  A
C717        C975   1.492       .  S
C718        H720   1.081       .  S
N721        N722   1.322       .  A
N721        C725   1.345       .  A
N721       Cu729   2.075       .  S
N722        C723   1.347       .  A
N722       Cu728   2.082       .  S
C723        C724   1.388       .  A
C723        H726   1.082       .  S
C724        C725   1.387       .  A
C724        C931   1.486       .  S
C725        H727   1.082       .  S
Cu728       N731   2.083       .  S
Cu729       N739   2.075       .  S
Cu730       N732   2.085       .  S
Cu730       N738   2.085       .  S
N731        N732   1.323       .  A
N731        C735   1.346       .  A
N732        C733   1.348       .  A
C733        C734   1.387       .  A
C733        H736   1.082       .  S
C734        C735   1.385       .  A
C734       C1581   1.483       .  S
C735        H737   1.082       .  S
N738        N739   1.321       .  A
N738        C742   1.346       .  A
N739        C740   1.345       .  A
C740        C741   1.389       .  A
C740        H743   1.081       .  S
C741        C742   1.391       .  A
C741        C987   1.493       .  S
C742        H744   1.081       .  S
N745        N746   1.322       .  A
N745        C749   1.347       .  A
N745       Cu753   2.086       .  S
N746        C747   1.344       .  A
N746       Cu752   2.068       .  S
C747        C748   1.384       .  A
C747        H750   1.082   1_655  S
C748        C749   1.389       .  A
C748        C909   1.483   1_655  S
C749        H751   1.082       .  S
Cu752       N755   2.067       .  S
Cu753       N763   2.087       .  S
Cu754       N756   2.074       .  S
Cu754       N762   2.075       .  S
N755        N756   1.321       .  A
N755        C759   1.343       .  A
N756        C757   1.347       .  A
C757        C758   1.387       .  A
C757        H760   1.082       .  S
C758        C759   1.384       .  A
C758        C965   1.479       .  S
C759        H761   1.082       .  S
N762        N763   1.322       .  A
N762        C766   1.343       .  A
N763        C764   1.347       .  A
C764        C765   1.391       .  A
C764        H767   1.081       .  S
C765        C766   1.388       .  A
C765       C1921   1.491       .  S
C766        H768   1.081       .  S
N769        N770   1.322       .  A
N769        C773   1.345       .  A
N769       Cu777   2.070       .  S
N770        C771   1.348       .  A
N770       Cu776   2.089       .  S
C771        C772   1.387       .  A
C771        H774   1.082       .  S
C772        C773   1.383       .  A
C772       C1173   1.479       .  S
C773        H775   1.082       .  S
Cu776       N779   2.089       .  S
Cu777       N787   2.070       .  S
Cu778       N780   2.081       .  S
Cu778       N786   2.080       .  S
N779        N780   1.323       .  A
N779        C783   1.346       .  A
N780        C781   1.347       .  A
C781        C782   1.387       .  A
C781        H784   1.082       .  S
C782        C783   1.388       .  A
C782       C1745   1.487       .  S
C783        H785   1.082       .  S
N786        N787   1.321       .  A
N786        C790   1.345       .  A
N787        C788   1.344       .  A
C788        C789   1.388       .  A
C788        H791   1.081       .  S
C789        C790   1.390       .  A
C789        C887   1.490       .  S
C790        H792   1.081       .  S
N793        N794   1.323       .  A
N793        C797   1.346       .  A
N793       Cu801   2.079       .  S
N794        C795   1.346       .  A
N794       Cu800   2.079       .  S
C795        C796   1.385       .  A
C795        H798   1.082       .  S
C796        C797   1.385       .  A
C796        C921   1.480       .  S
C797        H799   1.082       .  S
Cu800       N803   2.078       .  S
Cu801       N811   2.079       .  S
Cu802       N804   2.071       .  S
Cu802       N810   2.071       .  S
N803        N804   1.322       .  A
N803        C807   1.345       .  A
N804        C805   1.345       .  A
C805        C806   1.384       .  A
C805        H808   1.082       .  S
C806        C807   1.386       .  A
C806        C877   1.479       .  S
C807        H809   1.082       .  S
N810        N811   1.321       .  A
N810        C814   1.344       .  A
N811        C812   1.345       .  A
C812        C813   1.390       .  A
C812        H815   1.081       .  S
C813        C814   1.388       .  A
C813        C899   1.489       .  S
C814        H816   1.081       .  S
N817        N818   1.321       .  A
N817        C821   1.347       .  A
N817       Cu825   2.076       .  S
N818        C819   1.343       .  A
N818       Cu824   2.073       .  S
C819        C820   1.385       .  A
C819        H822   1.082   1_545  S
C820        C821   1.386       .  A
C820        C865   1.480   1_545  S
C821        H823   1.082       .  S
Cu824       N827   2.074       .  S
Cu825       N835   2.077       .  S
Cu826       N828   2.092       .  S
Cu826       N834   2.093       .  S
N827        N828   1.322       .  A
N827        C831   1.345       .  A
N828        C829   1.349       .  A
C829        C830   1.389       .  A
C829        H832   1.082       .  S
C830        C831   1.384       .  A
C830       C1009   1.484       .  S
C831        H833   1.082       .  S
N834        N835   1.323       .  A
N834        C838   1.348       .  A
N835        C836   1.345       .  A
C836        C837   1.387       .  A
C836        H839   1.081       .  S
C837        C838   1.391       .  A
C837       C1317   1.490       .  S
C838        H840   1.081       .  S
N841        N842   1.322       .  A
N841        C845   1.343       .  A
N841       Cu849   2.067       .  S
N842        C843   1.346       .  A
N842       Cu848   2.077       .  S
C843        C844   1.384       .  A
C843        H846   1.082   1_455  S
C844        C845   1.382       .  A
C844       C1075   1.474   1_455  S
C845        H847   1.082       .  S
Cu848       N851   2.077       .  S
Cu849       N859   2.067       .  S
Cu850       N852   2.082       .  S
Cu850       N858   2.081       .  S
N851        N852   1.322       .  A
N851        C855   1.347       .  A
N852        C853   1.345       .  A
C853        C854   1.386       .  A
C853        H856   1.082       .  S
C854        C855   1.386       .  A
C854        C943   1.483       .  S
C855        H857   1.082       .  S
N858        N859   1.320       .  A
N858        C862   1.345       .  A
N859        C860   1.344       .  A
C860        C861   1.388       .  A
C860        H863   1.081       .  S
C861        C862   1.390       .  A
C861       C1163   1.489       .  S
C862        H864   1.081       .  S
C865        C866   1.400       .  A
C865        C870   1.402       .  A
C866        C867   1.395       .  A
C866        H879   1.083       .  S
C867        C868   1.414       .  A
C867        H880   1.077       .  S
C868        C874   1.429       .  A
C868        C869   1.423       .  A
C869        C871   1.400       .  A
C869        C870   1.408       .  A
C870        H881   1.084   1_565  S
C871        C872   1.391       .  A
C871        H882   1.084       .  S
C872        C873   1.400       .  A
C872        H883   1.084       .  S
C873        C874   1.422       .  A
C873        C878   1.406       .  A
C874        C875   1.415       .  A
C875        C876   1.396       .  A
C875        H884   1.077       .  S
C876        C877   1.399       .  A
C876        H885   1.083       .  S
C877        C878   1.402       .  A
C878        H886   1.084       .  S
C887        C888   1.403       .  A
C887        C892   1.403       .  A
C888        C889   1.397       .  A
C888        H901   1.081       .  S
C889        C890   1.414       .  A
C889        H902   1.078       .  S
C890        C896   1.431       .  A
C890        C891   1.422       .  A
C891        C893   1.399       .  A
C891        C892   1.405       .  A
C892        H903   1.082       .  S
C893        C894   1.389       .  A
C893        H904   1.084       .  S
C894        C895   1.399       .  A
C894        H905   1.084       .  S
C895        C896   1.422       .  A
C895        C900   1.405       .  A
C896        C897   1.414       .  A
C897        C898   1.397       .  A
C897        H906   1.078       .  S
C898        C899   1.403       .  A
C898        H907   1.081       .  S
C899        C900   1.403       .  A
C900        H908   1.083       .  S
C909        C910   1.401       .  A
C909        C914   1.401       .  A
C910        C911   1.398       .  A
C910        H923   1.083       .  S
C911        C912   1.415       .  A
C911        H924   1.077       .  S
C912        C918   1.431       .  A
C912        C913   1.423       .  A
C913        C915   1.399       .  A
C913        C914   1.406       .  A
C914        H925   1.084   1_455  S
C915        C916   1.390       .  A
C915        H926   1.084       .  S
C916        C917   1.399       .  A
C916        H927   1.084       .  S
C917        C918   1.423       .  A
C917        C922   1.406       .  A
C918        C919   1.416       .  A
C919        C920   1.398       .  A
C919        H928   1.077       .  S
C920        C921   1.400       .  A
C920        H929   1.083       .  S
C921        C922   1.401       .  A
C922        H930   1.084       .  S
C931        C932   1.401       .  A
C931        C936   1.403       .  A
C932        C933   1.396       .  A
C932        H945   1.082       .  S
C933        C934   1.415       .  A
C933        H946   1.077       .  S
C934        C940   1.432       .  A
C934        C935   1.422       .  A
C935        C937   1.400       .  A
C935        C936   1.408       .  A
C936        H947   1.084       .  S
C937        C938   1.392       .  A
C937        H948   1.084       .  S
C938        C939   1.400       .  A
C938        H949   1.084       .  S
C939        C940   1.423       .  A
C939        C944   1.408       .  A
C940        C941   1.415       .  A
C941        C942   1.396       .  A
C941        H950   1.077       .  S
C942        C943   1.400       .  A
C942        H951   1.083       .  S
C943        C944   1.403       .  A
C944        H952   1.084       .  S
C953        C954   1.399       .  A
C953        C958   1.402       .  A
C954        C955   1.394       .  A
C954        H967   1.083       .  S
C955        C956   1.414       .  A
C955        H968   1.077       .  S
C956        C962   1.429       .  A
C956        C957   1.423       .  A
C957        C959   1.400       .  A
C957        C958   1.408       .  A
C958        H969   1.084       .  S
C959        C960   1.392       .  A
C959        H970   1.084       .  S
C960        C961   1.400       .  A
C960        H971   1.084       .  S
C961        C962   1.422       .  A
C961        C966   1.407       .  A
C962        C963   1.415       .  A
C963        C964   1.394       .  A
C963        H972   1.077       .  S
C964        C965   1.399       .  A
C964        H973   1.083       .  S
C965        C966   1.402       .  A
C966        H974   1.084       .  S
C975        C976   1.404       .  A
C975        C980   1.404       .  A
C976        C977   1.400       .  A
C976        H989   1.081       .  S
C977        C978   1.415       .  A
C977        H990   1.077       .  S
C978        C984   1.433       .  A
C978        C979   1.421       .  A
C979        C981   1.399       .  A
C979        C980   1.405       .  A
C980        H991   1.082       .  S
C981        C982   1.389       .  A
C981        H992   1.084       .  S
C982        C983   1.399       .  A
C982        H993   1.084       .  S
C983        C984   1.422       .  A
C983        C988   1.406       .  A
C984        C985   1.414       .  A
C985        C986   1.399   1_655  A
C985        H994   1.077       .  S
C986        C987   1.404       .  A
C986        H995   1.081       .  S
C987        C988   1.404   1_455  A
C988        H996   1.082       .  S
C997        C998   1.402       .  A
C997       C1002   1.404       .  A
C998        C999   1.397       .  A
C998       H1011   1.082       .  S
C999       C1000   1.414       .  A
C999       H1012   1.077       .  S
C1000      C1006   1.432       .  A
C1000      C1001   1.422       .  A
C1001      C1003   1.400       .  A
C1001      C1002   1.409       .  A
C1002      H1013   1.084       .  S
C1003      C1004   1.392       .  A
C1003      H1014   1.084       .  S
C1004      C1005   1.400       .  A
C1004      H1015   1.084       .  S
C1005      C1006   1.423       .  A
C1005      C1010   1.409       .  A
C1006      C1007   1.415       .  A
C1007      C1008   1.397       .  A
C1007      H1016   1.077       .  S
C1008      C1009   1.400       .  A
C1008      H1017   1.083       .  S
C1009      C1010   1.402       .  A
C1010      H1018   1.084       .  S
C1019      C1020   1.403       .  A
C1019      C1024   1.404       .  A
C1020      C1021   1.399       .  A
C1020      H1033   1.081       .  S
C1021      C1022   1.415   1_565  A
C1021      H1034   1.077       .  S
C1022      C1028   1.433       .  A
C1022      C1023   1.422       .  A
C1023      C1025   1.399       .  A
C1023      C1024   1.405   1_545  A
C1024      H1035   1.082       .  S
C1025      C1026   1.389       .  A
C1025      H1036   1.084       .  S
C1026      C1027   1.399       .  A
C1026      H1037   1.084       .  S
C1027      C1028   1.422       .  A
C1027      C1032   1.406       .  A
C1028      C1029   1.414       .  A
C1029      C1030   1.399       .  A
C1029      H1038   1.077       .  S
C1030      C1031   1.404       .  A
C1030      H1039   1.081       .  S
C1031      C1032   1.404       .  A
C1032      H1040   1.082       .  S
C1041      C1042   1.401       .  A
C1041      C1046   1.403       .  A
C1042      C1043   1.396       .  A
C1042      H1055   1.082       .  S
C1043      C1044   1.415       .  A
C1043      H1056   1.077       .  S
C1044      C1050   1.430       .  A
C1044      C1045   1.422       .  A
C1045      C1047   1.400       .  A
C1045      C1046   1.406       .  A
C1046      H1057   1.083       .  S
C1047      C1048   1.390       .  A
C1047      H1058   1.084       .  S
C1048      C1049   1.399       .  A
C1048      H1059   1.084       .  S
C1049      C1050   1.423       .  A
C1049      C1054   1.407       .  A
C1050      C1051   1.414       .  A
C1051      C1052   1.395       .  A
C1051      H1060   1.077       .  S
C1052      C1053   1.399       .  A
C1052      H1061   1.083       .  S
C1053      C1054   1.401       .  A
C1054      H1062   1.084       .  S
C1063      C1064   1.399       .  A
C1063      C1068   1.400       .  A
C1064      C1065   1.396       .  A
C1064      H1077   1.083       .  S
C1065      C1066   1.415       .  A
C1065      H1078   1.077       .  S
C1066      C1072   1.428       .  A
C1066      C1067   1.422       .  A
C1067      C1069   1.399       .  A
C1067      C1068   1.403       .  A
C1068      H1079   1.084       .  S
C1069      C1070   1.389       .  A
C1069      H1080   1.084       .  S
C1070      C1071   1.399       .  A
C1070      H1081   1.084       .  S
C1071      C1072   1.423       .  A
C1071      C1076   1.404       .  A
C1072      C1073   1.415       .  A
C1073      C1074   1.395       .  A
C1073      H1082   1.077       .  S
C1074      C1075   1.399       .  A
C1074      H1083   1.083   1_655  S
C1075      C1076   1.399       .  A
C1076      H1084   1.085       .  S
C1085      C1086   1.399       .  A
C1085      C1090   1.400       .  A
C1086      C1087   1.395       .  A
C1086      H1099   1.083       .  S
C1087      C1088   1.414       .  A
C1087      H1100   1.077       .  S
C1088      C1094   1.429       .  A
C1088      C1089   1.423       .  A
C1089      C1091   1.399       .  A
C1089      C1090   1.405       .  A
C1090      H1101   1.084       .  S
C1091      C1092   1.390       .  A
C1091      H1102   1.084       .  S
C1092      C1093   1.399       .  A
C1092      H1103   1.084       .  S
C1093      C1094   1.422       .  A
C1093      C1098   1.404       .  A
C1094      C1095   1.415       .  A
C1095      C1096   1.396       .  A
C1095      H1104   1.077       .  S
C1096      C1097   1.399       .  A
C1096      H1105   1.083       .  S
C1097      C1098   1.400       .  A
C1098      H1106   1.084       .  S
C1107      C1108   1.399       .  A
C1107      C1112   1.399       .  A
C1108      C1109   1.397       .  A
C1108      H1121   1.083       .  S
C1109      C1110   1.415       .  A
C1109      H1122   1.077       .  S
C1110      C1116   1.429       .  A
C1110      C1111   1.422       .  A
C1111      C1113   1.399       .  A
C1111      C1112   1.403       .  A
C1112      H1123   1.084       .  S
C1113      C1114   1.388       .  A
C1113      H1124   1.084       .  S
C1114      C1115   1.399       .  A
C1114      H1125   1.084       .  S
C1115      C1116   1.422       .  A
C1115      C1120   1.403       .  A
C1116      C1117   1.415       .  A
C1117      C1118   1.396       .  A
C1117      H1126   1.077       .  S
C1118      C1119   1.400       .  A
C1118      H1127   1.083       .  S
C1119      C1120   1.400       .  A
C1120      H1128   1.084       .  S
C1129      C1130   1.402       .  A
C1129      C1134   1.403       .  A
C1130      C1131   1.396       .  A
C1130      H1143   1.081       .  S
C1131      C1132   1.414       .  A
C1131      H1144   1.077       .  S
C1132      C1138   1.428       .  A
C1132      C1133   1.421       .  A
C1133      C1135   1.399       .  A
C1133      C1134   1.402       .  A
C1134      H1145   1.082       .  S
C1135      C1136   1.388       .  A
C1135      H1146   1.084       .  S
C1136      C1137   1.399       .  A
C1136      H1147   1.084       .  S
C1137      C1138   1.421       .  A
C1137      C1142   1.403       .  A
C1138      C1139   1.413       .  A
C1139      C1140   1.395       .  A
C1139      H1148   1.077       .  S
C1140      C1141   1.403       .  A
C1140      H1149   1.081       .  S
C1141      C1142   1.402       .  A
C1142      H1150   1.082       .  S
C1151      C1152   1.400       .  A
C1151      C1156   1.403       .  A
C1152      C1153   1.395       .  A
C1152      H1165   1.082       .  S
C1153      C1154   1.414       .  A
C1153      H1166   1.077       .  S
C1154      C1160   1.430       .  A
C1154      C1155   1.422       .  A
C1155      C1157   1.400       .  A
C1155      C1156   1.406       .  A
C1156      H1167   1.083       .  S
C1157      C1158   1.390       .  A
C1157      H1168   1.084       .  S
C1158      C1159   1.400       .  A
C1158      H1169   1.084       .  S
C1159      C1160   1.421       .  A
C1159      C1164   1.406       .  A
C1160      C1161   1.414       .  A
C1161      C1162   1.396       .  A
C1161      H1170   1.077       .  S
C1162      C1163   1.402       .  A
C1162      H1171   1.081       .  S
C1163      C1164   1.405       .  A
C1164      H1172   1.082       .  S
C1173      C1174   1.399       .  A
C1173      C1178   1.402       .  A
C1174      C1175   1.398       .  A
C1174      H1187   1.083       .  S
C1175      C1176   1.415       .  A
C1175      H1188   1.078       .  S
C1176      C1182   1.430       .  A
C1176      C1177   1.422       .  A
C1177      C1179   1.400       .  A
C1177      C1178   1.407       .  A
C1178      H1189   1.084       .  S
C1179      C1180   1.392       .  A
C1179      H1190   1.084       .  S
C1180      C1181   1.400       .  A
C1180      H1191   1.084       .  S
C1181      C1182   1.422       .  A
C1181      C1186   1.407       .  A
C1182      C1183   1.415       .  A
C1183      C1184   1.397       .  A
C1183      H1192   1.078       .  S
C1184      C1185   1.399       .  A
C1184      H1193   1.083       .  S
C1185      C1186   1.402       .  A
C1186      H1194   1.084       .  S
C1195      C1196   1.400       .  A
C1195      C1200   1.402       .  A
C1196      C1197   1.398       .  A
C1196      H1209   1.083       .  S
C1197      C1198   1.415       .  A
C1197      H1210   1.077       .  S
C1198      C1204   1.431       .  A
C1198      C1199   1.422       .  A
C1199      C1201   1.400       .  A
C1199      C1200   1.406       .  A
C1200      H1211   1.084       .  S
C1201      C1202   1.391       .  A
C1201      H1212   1.084       .  S
C1202      C1203   1.400       .  A
C1202      H1213   1.084       .  S
C1203      C1204   1.423       .  A
C1203      C1208   1.407       .  A
C1204      C1205   1.415       .  A
C1205      C1206   1.397       .  A
C1205      H1214   1.077       .  S
C1206      C1207   1.399       .  A
C1206      H1215   1.083       .  S
C1207      C1208   1.401       .  A
C1208      H1216   1.084       .  S
C1217      C1218   1.401       .  A
C1217      C1222   1.401       .  A
C1218      C1219   1.397       .  A
C1218      H1231   1.083       .  S
C1219      C1220   1.415       .  A
C1219      H1232   1.077       .  S
C1220      C1226   1.431       .  A
C1220      C1221   1.423       .  A
C1221      C1223   1.399       .  A
C1221      C1222   1.405       .  A
C1222      H1233   1.084       .  S
C1223      C1224   1.389       .  A
C1223      H1234   1.084       .  S
C1224      C1225   1.399       .  A
C1224      H1235   1.084       .  S
C1225      C1226   1.422       .  A
C1225      C1230   1.405       .  A
C1226      C1227   1.415       .  A
C1227      C1228   1.398       .  A
C1227      H1236   1.077       .  S
C1228      C1229   1.401       .  A
C1228      H1237   1.082       .  S
C1229      C1230   1.402       .  A
C1230      H1238   1.083       .  S
C1239      C1240   1.399       .  A
C1239      C1244   1.400       .  A
C1240      C1241   1.399       .  A
C1240      H1253   1.083       .  S
C1241      C1242   1.416       .  A
C1241      H1254   1.078       .  S
C1242      C1248   1.431       .  A
C1242      C1243   1.422       .  A
C1243      C1245   1.399       .  A
C1243      C1244   1.404       .  A
C1244      H1255   1.084       .  S
C1245      C1246   1.389       .  A
C1245      H1256   1.084       .  S
C1246      C1247   1.399       .  A
C1246      H1257   1.084       .  S
C1247      C1248   1.423       .  A
C1247      C1252   1.405       .  A
C1248      C1249   1.415       .  A
C1249      C1250   1.398       .  A
C1249      H1258   1.078       .  S
C1250      C1251   1.401       .  A
C1250      H1259   1.083   1_545  S
C1251      C1252   1.401       .  A
C1252      H1260   1.084       .  S
C1261      C1262   1.400       .  A
C1261      C1266   1.402       .  A
C1262      C1263   1.396       .  A
C1262      H1275   1.083       .  S
C1263      C1264   1.414       .  A
C1263      H1276   1.077       .  S
C1264      C1270   1.430       .  A
C1264      C1265   1.422       .  A
C1265      C1267   1.400       .  A
C1265      C1266   1.406       .  A
C1266      H1277   1.084       .  S
C1267      C1268   1.391       .  A
C1267      H1278   1.084       .  S
C1268      C1269   1.400       .  A
C1268      H1279   1.084       .  S
C1269      C1270   1.423       .  A
C1269      C1274   1.406       .  A
C1270      C1271   1.415       .  A
C1271      C1272   1.395       .  A
C1271      H1280   1.077       .  S
C1272      C1273   1.399       .  A
C1272      H1281   1.083       .  S
C1273      C1274   1.401       .  A
C1274      H1282   1.084       .  S
C1283      C1284   1.403       .  A
C1283      C1288   1.406       .  A
C1284      C1285   1.395       .  A
C1284      H1297   1.081       .  S
C1285      C1286   1.413       .  A
C1285      H1298   1.077       .  S
C1286      C1292   1.432       .  A
C1286      C1287   1.422       .  A
C1287      C1289   1.400       .  A
C1287      C1288   1.410       .  A
C1288      H1299   1.082       .  S
C1289      C1290   1.392       .  A
C1289      H1300   1.084       .  S
C1290      C1291   1.400       .  A
C1290      H1301   1.084       .  S
C1291      C1292   1.422       .  A
C1291      C1296   1.409       .  A
C1292      C1293   1.414       .  A
C1293      C1294   1.396       .  A
C1293      H1302   1.077       .  S
C1294      C1295   1.402       .  A
C1294      H1303   1.082       .  S
C1295      C1296   1.405       .  A
C1296      H1304   1.083       .  S
C1305      C1306   1.403       .  A
C1305      C1310   1.405       .  A
C1306      C1307   1.397       .  A
C1306      H1319   1.081       .  S
C1307      C1308   1.413       .  A
C1307      H1320   1.077       .  S
C1308      C1314   1.433       .  A
C1308      C1309   1.422       .  A
C1309      C1311   1.400       .  A
C1309      C1310   1.409       .  A
C1310      H1321   1.083       .  S
C1311      C1312   1.391       .  A
C1311      H1322   1.084       .  S
C1312      C1313   1.400       .  A
C1312      H1323   1.084       .  S
C1313      C1314   1.421       .  A
C1313      C1318   1.407       .  A
C1314      C1315   1.415       .  A
C1315      C1316   1.399       .  A
C1315      H1324   1.077       .  S
C1316      C1317   1.402       .  A
C1316      H1325   1.082       .  S
C1317      C1318   1.405       .  A
C1318      H1326   1.083       .  S
C1327      C1328   1.400       .  A
C1327      C1332   1.400       .  A
C1328      C1329   1.397       .  A
C1328      H1341   1.083       .  S
C1329      C1330   1.415       .  A
C1329      H1342   1.078       .  S
C1330      C1336   1.430       .  A
C1330      C1331   1.423       .  A
C1331      C1333   1.399       .  A
C1331      C1332   1.405       .  A
C1332      H1343   1.084       .  S
C1333      C1334   1.389       .  A
C1333      H1344   1.084       .  S
C1334      C1335   1.399       .  A
C1334      H1345   1.084       .  S
C1335      C1336   1.422       .  A
C1335      C1340   1.405       .  A
C1336      C1337   1.415       .  A
C1337      C1338   1.398       .  A
C1337      H1346   1.078       .  S
C1338      C1339   1.401       .  A
C1338      H1347   1.083       .  S
C1339      C1340   1.400       .  A
C1340      H1348   1.084       .  S
C1349      C1350   1.400       .  A
C1349      C1354   1.401       .  A
C1350      C1351   1.398       .  A
C1350      H1363   1.083       .  S
C1351      C1352   1.415       .  A
C1351      H1364   1.077       .  S
C1352      C1358   1.432       .  A
C1352      C1353   1.423       .  A
C1353      C1355   1.400       .  A
C1353      C1354   1.406       .  A
C1354      H1365   1.084       .  S
C1355      C1356   1.391       .  A
C1355      H1366   1.084       .  S
C1356      C1357   1.400       .  A
C1356      H1367   1.084       .  S
C1357      C1358   1.422       .  A
C1357      C1362   1.407       .  A
C1358      C1359   1.415       .  A
C1359      C1360   1.398       .  A
C1359      H1368   1.077       .  S
C1360      C1361   1.400       .  A
C1360      H1369   1.083       .  S
C1361      C1362   1.402       .  A
C1362      H1370   1.084       .  S
C1371      C1372   1.402       .  A
C1371      C1376   1.404       .  A
C1372      C1373   1.397       .  A
C1372      H1385   1.082       .  S
C1373      C1374   1.415       .  A
C1373      H1386   1.077       .  S
C1374      C1380   1.430       .  A
C1374      C1375   1.421       .  A
C1375      C1377   1.400       .  A
C1375      C1376   1.404       .  A
C1376      H1387   1.082       .  S
C1377      C1378   1.389       .  A
C1377      H1388   1.084       .  S
C1378      C1379   1.399       .  A
C1378      H1389   1.084       .  S
C1379      C1380   1.423       .  A
C1379      C1384   1.405       .  A
C1380      C1381   1.414       .  A
C1381      C1382   1.396       .  A
C1381      H1390   1.077       .  S
C1382      C1383   1.401       .  A
C1382      H1391   1.082       .  S
C1383      C1384   1.401       .  A
C1384      H1392   1.084       .  S
C1393      C1394   1.401       .  A
C1393      C1398   1.401       .  A
C1394      C1395   1.399       .  A
C1394      H1407   1.083       .  S
C1395      C1396   1.416       .  A
C1395      H1408   1.078       .  S
C1396      C1402   1.431       .  A
C1396      C1397   1.422       .  A
C1397      C1399   1.399       .  A
C1397      C1398   1.404       .  A
C1398      H1409   1.084       .  S
C1399      C1400   1.389       .  A
C1399      H1410   1.084       .  S
C1400      C1401   1.399       .  A
C1400      H1411   1.084       .  S
C1401      C1402   1.423       .  A
C1401      C1406   1.405       .  A
C1402      C1403   1.415       .  A
C1403      C1404   1.398       .  A
C1403      H1412   1.078       .  S
C1404      C1405   1.400       .  A
C1404      H1413   1.083       .  S
C1405      C1406   1.399       .  A
C1406      H1414   1.085       .  S
C1415      C1416   1.397       .  A
C1415      C1420   1.400       .  A
C1416      C1417   1.395       .  A
C1416      H1429   1.083   1_455  S
C1417      C1418   1.415       .  A
C1417      H1430   1.077       .  S
C1418      C1424   1.428       .  A
C1418      C1419   1.422       .  A
C1419      C1421   1.400       .  A
C1419      C1420   1.405       .  A
C1420      H1431   1.085       .  S
C1421      C1422   1.391       .  A
C1421      H1432   1.084       .  S
C1422      C1423   1.400       .  A
C1422      H1433   1.084       .  S
C1423      C1424   1.422       .  A
C1423      C1428   1.405       .  A
C1424      C1425   1.414       .  A
C1425      C1426   1.395       .  A
C1425      H1434   1.077       .  S
C1426      C1427   1.400       .  A
C1426      H1435   1.083       .  S
C1427      C1428   1.401       .  A
C1428      H1436   1.084       .  S
C1437      C1438   1.400       .  A
C1437      C1442   1.402       .  A
C1438      C1439   1.394       .  A
C1438      H1451   1.082       .  S
C1439      C1440   1.414       .  A
C1439      H1452   1.077       .  S
C1440      C1446   1.428       .  A
C1440      C1441   1.422       .  A
C1441      C1443   1.400       .  A
C1441      C1442   1.405       .  A
C1442      H1453   1.084       .  S
C1443      C1444   1.390       .  A
C1443      H1454   1.084       .  S
C1444      C1445   1.400       .  A
C1444      H1455   1.084       .  S
C1445      C1446   1.422       .  A
C1445      C1450   1.405       .  A
C1446      C1447   1.414       .  A
C1447      C1448   1.394       .  A
C1447      H1456   1.077       .  S
C1448      C1449   1.399       .  A
C1448      H1457   1.083       .  S
C1449      C1450   1.402       .  A
C1450      H1458   1.084       .  S
C1459      C1460   1.400       .  A
C1459      C1464   1.401       .  A
C1460      C1461   1.399       .  A
C1460      H1473   1.083       .  S
C1461      C1462   1.416       .  A
C1461      H1474   1.078       .  S
C1462      C1468   1.432       .  A
C1462      C1463   1.422       .  A
C1463      C1465   1.400       .  A
C1463      C1464   1.407       .  A
C1464      H1475   1.084       .  S
C1465      C1466   1.391       .  A
C1465      H1476   1.084       .  S
C1466      C1467   1.400       .  A
C1466      H1477   1.084       .  S
C1467      C1468   1.423       .  A
C1467      C1472   1.408       .  A
C1468      C1469   1.415       .  A
C1469      C1470   1.398       .  A
C1469      H1478   1.078       .  S
C1470      C1471   1.400       .  A
C1470      H1479   1.083       .  S
C1471      C1472   1.401       .  A
C1472      H1480   1.084       .  S
C1481      C1482   1.402       .  A
C1481      C1486   1.403       .  A
C1482      C1483   1.396       .  A
C1482      H1495   1.082       .  S
C1483      C1484   1.414       .  A
C1483      H1496   1.077       .  S
C1484      C1490   1.430       .  A
C1484      C1485   1.422       .  A
C1485      C1487   1.399       .  A
C1485      C1486   1.405       .  A
C1486      H1497   1.083       .  S
C1487      C1488   1.389       .  A
C1487      H1498   1.084       .  S
C1488      C1489   1.399       .  A
C1488      H1499   1.084       .  S
C1489      C1490   1.422       .  A
C1489      C1494   1.404       .  A
C1490      C1491   1.414       .  A
C1491      C1492   1.396       .  A
C1491      H1500   1.077       .  S
C1492      C1493   1.402       .  A
C1492      H1501   1.081       .  S
C1493      C1494   1.403       .  A
C1494      H1502   1.082       .  S
C1503      C1504   1.402       .  A
C1503      C1508   1.404   1_545  A
C1504      C1505   1.397   1_556  A
C1504      H1517   1.081   1_556  S
C1505      C1506   1.414   1_554  A
C1505      H1518   1.077       .  S
C1506      C1512   1.430       .  A
C1506      C1507   1.421   1_545  A
C1507      C1509   1.400       .  A
C1507      C1508   1.404       .  A
C1508      H1519   1.082       .  S
C1509      C1510   1.389       .  A
C1509      H1520   1.084       .  S
C1510      C1511   1.399       .  A
C1510      H1521   1.084       .  S
C1511      C1512   1.422   1_565  A
C1511      C1516   1.405       .  A
C1512      C1513   1.414   1_556  A
C1513      C1514   1.396       .  A
C1513      H1522   1.077       .  S
C1514      C1515   1.402   1_554  A
C1514      H1523   1.081       .  S
C1515      C1516   1.403   1_545  A
C1516      H1524   1.083       .  S
C1525      C1526   1.400       .  A
C1525      C1530   1.401       .  A
C1526      C1527   1.394       .  A
C1526      H1539   1.083       .  S
C1527      C1528   1.414       .  A
C1527      H1540   1.077       .  S
C1528      C1534   1.429       .  A
C1528      C1529   1.423       .  A
C1529      C1531   1.400       .  A
C1529      C1530   1.406       .  A
C1530      H1541   1.084       .  S
C1531      C1532   1.390       .  A
C1531      H1542   1.084       .  S
C1532      C1533   1.400       .  A
C1532      H1543   1.084       .  S
C1533      C1534   1.422       .  A
C1533      C1538   1.405       .  A
C1534      C1535   1.415       .  A
C1535      C1536   1.395       .  A
C1535      H1544   1.077       .  S
C1536      C1537   1.399       .  A
C1536      H1545   1.083       .  S
C1537      C1538   1.401       .  A
C1538      H1546   1.084       .  S
C1547      C1548   1.403       .  A
C1547      C1552   1.405       .  A
C1548      C1549   1.398       .  A
C1548      H1561   1.081       .  S
C1549      C1550   1.414       .  A
C1549      H1562   1.077       .  S
C1550      C1556   1.432       .  A
C1550      C1551   1.422       .  A
C1551      C1553   1.400       .  A
C1551      C1552   1.406       .  A
C1552      H1563   1.082       .  S
C1553      C1554   1.390       .  A
C1553      H1564   1.084       .  S
C1554      C1555   1.400       .  A
C1554      H1565   1.084       .  S
C1555      C1556   1.422       .  A
C1555      C1560   1.406       .  A
C1556      C1557   1.415       .  A
C1557      C1558   1.398       .  A
C1557      H1566   1.077       .  S
C1558      C1559   1.402       .  A
C1558      H1567   1.082       .  S
C1559      C1560   1.404       .  A
C1560      H1568   1.083       .  S
C1569      C1570   1.402       .  A
C1569      C1574   1.401       .  A
C1570      C1571   1.401       .  A
C1570      H1583   1.083       .  S
C1571      C1572   1.416       .  A
C1571      H1584   1.078       .  S
C1572      C1578   1.433       .  A
C1572      C1573   1.423       .  A
C1573      C1575   1.399       .  A
C1573      C1574   1.406       .  A
C1574      H1585   1.084       .  S
C1575      C1576   1.390       .  A
C1575      H1586   1.084       .  S
C1576      C1577   1.399       .  A
C1576      H1587   1.084       .  S
C1577      C1578   1.423       .  A
C1577      C1582   1.406       .  A
C1578      C1579   1.416       .  A
C1579      C1580   1.401       .  A
C1579      H1588   1.078       .  S
C1580      C1581   1.401       .  A
C1580      H1589   1.083       .  S
C1581      C1582   1.401       .  A
C1582      H1590   1.084       .  S
C1591      C1592   1.400       .  A
C1591      C1596   1.401       .  A
C1592      C1593   1.400       .  A
C1592      H1605   1.083       .  S
C1593      C1594   1.416       .  A
C1593      H1606   1.077       .  S
C1594      C1600   1.433       .  A
C1594      C1595   1.423       .  A
C1595      C1597   1.400       .  A
C1595      C1596   1.408       .  A
C1596      H1607   1.084       .  S
C1597      C1598   1.391       .  A
C1597      H1608   1.084       .  S
C1598      C1599   1.400       .  A
C1598      H1609   1.084       .  S
C1599      C1600   1.423       .  A
C1599      C1604   1.408       .  A
C1600      C1601   1.415       .  A
C1601      C1602   1.399       .  A
C1601      H1610   1.077       .  S
C1602      C1603   1.401       .  A
C1602      H1611   1.083   1_655  S
C1603      C1604   1.402       .  A
C1604      H1612   1.084       .  S
C1613      C1614   1.402       .  A
C1613      C1618   1.405       .  A
C1614      C1615   1.398       .  A
C1614      H1627   1.082       .  S
C1615      C1616   1.415       .  A
C1615      H1628   1.077       .  S
C1616      C1622   1.433       .  A
C1616      C1617   1.422       .  A
C1617      C1619   1.400       .  A
C1617      C1618   1.409       .  A
C1618      H1629   1.083       .  S
C1619      C1620   1.392       .  A
C1619      H1630   1.084       .  S
C1620      C1621   1.400       .  A
C1620      H1631   1.084       .  S
C1621      C1622   1.422       .  A
C1621      C1626   1.410       .  A
C1622      C1623   1.413       .  A
C1623      C1624   1.396       .  A
C1623      H1632   1.077       .  S
C1624      C1625   1.404       .  A
C1624      H1633   1.081       .  S
C1625      C1626   1.405       .  A
C1626      H1634   1.083       .  S
C1635      C1636   1.402       .  A
C1635      C1640   1.405       .  A
C1636      C1637   1.396       .  A
C1636      H1649   1.081       .  S
C1637      C1638   1.415       .  A
C1637      H1650   1.077       .  S
C1638      C1644   1.430       .  A
C1638      C1639   1.420       .  A
C1639      C1641   1.400       .  A
C1639      C1640   1.406       .  A
C1640      H1651   1.082       .  S
C1641      C1642   1.390       .  A
C1641      H1652   1.084       .  S
C1642      C1643   1.400       .  A
C1642      H1653   1.084       .  S
C1643      C1644   1.422       .  A
C1643      C1648   1.407       .  A
C1644      C1645   1.412       .  A
C1645      C1646   1.395       .  A
C1645      H1654   1.077       .  S
C1646      C1647   1.403       .  A
C1646      H1655   1.081       .  S
C1647      C1648   1.404       .  A
C1648      H1656   1.082       .  S
C1657      C1658   1.399       .  A
C1657      C1662   1.400       .  A
C1658      C1659   1.398       .  A
C1658      H1671   1.083       .  S
C1659      C1660   1.416       .  A
C1659      H1672   1.078       .  S
C1660      C1666   1.431       .  A
C1660      C1661   1.423       .  A
C1661      C1663   1.400       .  A
C1661      C1662   1.406       .  A
C1662      H1673   1.085       .  S
C1663      C1664   1.391       .  A
C1663      H1674   1.084       .  S
C1664      C1665   1.400       .  A
C1664      H1675   1.084       .  S
C1665      C1666   1.422       .  A
C1665      C1670   1.406       .  A
C1666      C1667   1.414       .  A
C1667      C1668   1.397       .  A
C1667      H1676   1.078       .  S
C1668      C1669   1.402       .  A
C1668      H1677   1.082       .  S
C1669      C1670   1.403       .  A
C1670      H1678   1.084       .  S
C1679      C1680   1.401       .  A
C1679      C1684   1.401       .  A
C1680      C1681   1.397       .  A
C1680      H1693   1.083       .  S
C1681      C1682   1.414       .  A
C1681      H1694   1.077       .  S
C1682      C1688   1.430       .  A
C1682      C1683   1.423       .  A
C1683      C1685   1.399       .  A
C1683      C1684   1.406       .  A
C1684      H1695   1.084       .  S
C1685      C1686   1.390       .  A
C1685      H1696   1.084       .  S
C1686      C1687   1.399       .  A
C1686      H1697   1.084       .  S
C1687      C1688   1.422       .  A
C1687      C1692   1.404       .  A
C1688      C1689   1.415       .  A
C1689      C1690   1.397       .  A
C1689      H1698   1.077       .  S
C1690      C1691   1.400       .  A
C1690      H1699   1.083       .  S
C1691      C1692   1.401       .  A
C1692      H1700   1.084       .  S
C1701      C1702   1.401       .  A
C1701      C1706   1.403       .  A
C1702      C1703   1.395       .  A
C1702      H1715   1.082       .  S
C1703      C1704   1.414       .  A
C1703      H1716   1.077       .  S
C1704      C1710   1.429       .  A
C1704      C1705   1.422       .  A
C1705      C1707   1.400       .  A
C1705      C1706   1.407       .  A
C1706      H1717   1.084       .  S
C1707      C1708   1.391       .  A
C1707      H1718   1.084       .  S
C1708      C1709   1.400       .  A
C1708      H1719   1.084       .  S
C1709      C1710   1.422       .  A
C1709      C1714   1.406       .  A
C1710      C1711   1.415       .  A
C1711      C1712   1.396       .  A
C1711      H1720   1.077       .  S
C1712      C1713   1.398       .  A
C1712      H1721   1.083       .  S
C1713      C1714   1.400       .  A
C1714      H1722   1.085       .  S
C1723      C1724   1.403       .  A
C1723      C1728   1.405   1_655  A
C1724      C1725   1.395       .  A
C1724      H1737   1.081   1_556  S
C1725      C1726   1.413       .  A
C1725      H1738   1.077   1_556  S
C1726      C1732   1.430       .  A
C1726      C1727   1.422   1_655  A
C1727      C1729   1.400       .  A
C1727      C1728   1.408       .  A
C1728      H1739   1.083       .  S
C1729      C1730   1.391       .  A
C1729      H1740   1.084       .  S
C1730      C1731   1.400       .  A
C1730      H1741   1.084       .  S
C1731      C1732   1.422   1_455  A
C1731      C1736   1.408       .  A
C1732      C1733   1.413       .  A
C1733      C1734   1.395       .  A
C1733      H1742   1.077   1_556  S
C1734      C1735   1.403       .  A
C1734      H1743   1.081   1_556  S
C1735      C1736   1.405   1_655  A
C1736      H1744   1.083       .  S
C1745      C1746   1.401       .  A
C1745      C1750   1.404       .  A
C1746      C1747   1.397       .  A
C1746      H1759   1.083       .  S
C1747      C1748   1.415       .  A
C1747      H1760   1.077       .  S
C1748      C1754   1.433       .  A
C1748      C1749   1.423       .  A
C1749      C1751   1.401       .  A
C1749      C1750   1.410       .  A
C1750      H1761   1.084       .  S
C1751      C1752   1.392       .  A
C1751      H1762   1.084       .  S
C1752      C1753   1.400       .  A
C1752      H1763   1.084       .  S
C1753      C1754   1.423       .  A
C1753      C1758   1.409       .  A
C1754      C1755   1.415       .  A
C1755      C1756   1.397       .  A
C1755      H1764   1.077       .  S
C1756      C1757   1.399       .  A
C1756      H1765   1.083       .  S
C1757      C1758   1.403       .  A
C1758      H1766   1.084       .  S
C1767      C1768   1.400       .  A
C1767      C1772   1.404       .  A
C1768      C1769   1.398       .  A
C1768      H1781   1.083       .  S
C1769      C1770   1.415       .  A
C1769      H1782   1.077       .  S
C1770      C1776   1.432       .  A
C1770      C1771   1.422       .  A
C1771      C1773   1.400       .  A
C1771      C1772   1.408       .  A
C1772      H1783   1.084       .  S
C1773      C1774   1.392       .  A
C1773      H1784   1.084       .  S
C1774      C1775   1.400       .  A
C1774      H1785   1.084       .  S
C1775      C1776   1.423       .  A
C1775      C1780   1.409       .  A
C1776      C1777   1.414       .  A
C1777      C1778   1.396       .  A
C1777      H1786   1.077       .  S
C1778      C1779   1.401       .  A
C1778      H1787   1.083       .  S
C1779      C1780   1.402       .  A
C1780      H1788   1.084       .  S
C1789      C1790   1.401       .  A
C1789      C1794   1.402       .  A
C1790      C1791   1.397       .  A
C1790      H1803   1.083       .  S
C1791      C1792   1.415       .  A
C1791      H1804   1.077       .  S
C1792      C1798   1.430       .  A
C1792      C1793   1.422       .  A
C1793      C1795   1.400       .  A
C1793      C1794   1.405       .  A
C1794      H1805   1.084       .  S
C1795      C1796   1.390       .  A
C1795      H1806   1.084       .  S
C1796      C1797   1.399       .  A
C1796      H1807   1.084       .  S
C1797      C1798   1.423       .  A
C1797      C1802   1.406       .  A
C1798      C1799   1.414       .  A
C1799      C1800   1.395       .  A
C1799      H1808   1.077       .  S
C1800      C1801   1.400       .  A
C1800      H1809   1.083       .  S
C1801      C1802   1.400       .  A
C1802      H1810   1.084       .  S
C1811      C1812   1.400       .  A
C1811      C1816   1.402       .  A
C1812      C1813   1.397       .  A
C1812      H1825   1.083       .  S
C1813      C1814   1.415       .  A
C1813      H1826   1.078       .  S
C1814      C1820   1.430       .  A
C1814      C1815   1.422       .  A
C1815      C1817   1.400       .  A
C1815      C1816   1.406       .  A
C1816      H1827   1.084       .  S
C1817      C1818   1.390       .  A
C1817      H1828   1.084       .  S
C1818      C1819   1.399       .  A
C1818      H1829   1.084       .  S
C1819      C1820   1.422       .  A
C1819      C1824   1.405       .  A
C1820      C1821   1.415       .  A
C1821      C1822   1.398       .  A
C1821      H1830   1.078       .  S
C1822      C1823   1.399       .  A
C1822      H1831   1.083       .  S
C1823      C1824   1.400       .  A
C1824      H1832   1.085       .  S
C1833      C1834   1.403       .  A
C1833      C1838   1.404       .  A
C1834      C1835   1.396       .  A
C1834      H1847   1.081       .  S
C1835      C1836   1.413       .  A
C1835      H1848   1.076       .  S
C1836      C1842   1.431       .  A
C1836      C1837   1.422       .  A
C1837      C1839   1.400       .  A
C1837      C1838   1.407       .  A
C1838      H1849   1.082       .  S
C1839      C1840   1.390       .  A
C1839      H1850   1.084       .  S
C1840      C1841   1.400       .  A
C1840      H1851   1.084       .  S
C1841      C1842   1.421       .  A
C1841      C1846   1.406       .  A
C1842      C1843   1.414       .  A
C1843      C1844   1.397       .  A
C1843      H1852   1.076       .  S
C1844      C1845   1.403       .  A
C1844      H1853   1.081       .  S
C1845      C1846   1.405       .  A
C1846      H1854   1.082       .  S
C1855      C1856   1.402       .  A
C1855      C1860   1.402       .  A
C1856      C1857   1.395       .  A
C1856      H1869   1.082       .  S
C1857      C1858   1.413       .  A
C1857      H1870   1.077       .  S
C1858      C1864   1.431       .  A
C1858      C1859   1.423       .  A
C1859      C1861   1.399       .  A
C1859      C1860   1.407       .  A
C1860      H1871   1.083       .  S
C1861      C1862   1.390       .  A
C1861      H1872   1.084       .  S
C1862      C1863   1.400       .  A
C1862      H1873   1.084       .  S
C1863      C1864   1.422       .  A
C1863      C1868   1.406       .  A
C1864      C1865   1.414       .  A
C1865      C1866   1.396       .  A
C1865      H1874   1.077       .  S
C1866      C1867   1.402       .  A
C1866      H1875   1.082       .  S
C1867      C1868   1.403       .  A
C1868      H1876   1.083       .  S
C1877      C1878   1.400       .  A
C1877      C1882   1.400       .  A
C1878      C1879   1.397       .  A
C1878      H1891   1.083   1_565  S
C1879      C1880   1.415       .  A
C1879      H1892   1.077       .  S
C1880      C1886   1.429       .  A
C1880      C1881   1.422       .  A
C1881      C1883   1.399       .  A
C1881      C1882   1.403       .  A
C1882      H1893   1.084       .  S
C1883      C1884   1.389       .  A
C1883      H1894   1.084       .  S
C1884      C1885   1.399       .  A
C1884      H1895   1.084       .  S
C1885      C1886   1.423       .  A
C1885      C1890   1.404       .  A
C1886      C1887   1.415       .  A
C1887      C1888   1.396       .  A
C1887      H1896   1.077       .  S
C1888      C1889   1.400       .  A
C1888      H1897   1.083       .  S
C1889      C1890   1.400       .  A
C1890      H1898   1.084       .  S
C1899      C1900   1.402       .  A
C1899      C1904   1.402       .  A
C1900      C1901   1.398       .  A
C1900      H1913   1.082       .  S
C1901      C1902   1.415       .  A
C1901      H1914   1.077       .  S
C1902      C1908   1.431       .  A
C1902      C1903   1.422       .  A
C1903      C1905   1.399       .  A
C1903      C1904   1.406       .  A
C1904      H1915   1.084       .  S
C1905      C1906   1.390       .  A
C1905      H1916   1.084       .  S
C1906      C1907   1.399       .  A
C1906      H1917   1.084       .  S
C1907      C1908   1.422       .  A
C1907      C1912   1.405       .  A
C1908      C1909   1.416       .  A
C1909      C1910   1.398       .  A
C1909      H1918   1.077       .  S
C1910      C1911   1.400       .  A
C1910      H1919   1.083       .  S
C1911      C1912   1.400       .  A
C1912      H1920   1.084       .  S
C1921      C1922   1.403       .  A
C1921      C1926   1.404       .  A
C1922      C1923   1.396       .  A
C1922      H1935   1.081       .  S
C1923      C1924   1.413       .  A
C1923      H1936   1.077       .  S
C1924      C1930   1.431       .  A
C1924      C1925   1.422       .  A
C1925      C1927   1.400       .  A
C1925      C1926   1.407       .  A
C1926      H1937   1.082       .  S
C1927      C1928   1.391       .  A
C1927      H1938   1.084       .  S
C1928      C1929   1.400       .  A
C1928      H1939   1.084       .  S
C1929      C1930   1.421       .  A
C1929      C1934   1.406       .  A
C1930      C1931   1.414       .  A
C1931      C1932   1.396       .  A
C1931      H1940   1.077       .  S
C1932      C1933   1.403       .  A
C1932      H1941   1.081       .  S
C1933      C1934   1.405       .  A
C1934      H1942   1.082       .  S
C1943      C1944   1.400       .  A
C1943      C1948   1.402       .  A
C1944      C1945   1.396       .  A
C1944      H1957   1.083       .  S
C1945      C1946   1.415       .  A
C1945      H1958   1.077       .  S
C1946      C1952   1.431       .  A
C1946      C1947   1.422       .  A
C1947      C1949   1.400       .  A
C1947      C1948   1.407       .  A
C1948      H1959   1.084       .  S
C1949      C1950   1.391       .  A
C1949      H1960   1.084       .  S
C1950      C1951   1.400       .  A
C1950      H1961   1.084       .  S
C1951      C1952   1.422       .  A
C1951      C1956   1.407       .  A
C1952      C1953   1.415       .  A
C1953      C1954   1.397       .  A
C1953      H1962   1.077       .  S
C1954      C1955   1.400       .  A
C1954      H1963   1.083       .  S
C1955      C1956   1.402       .  A
C1956      H1964   1.084       .  S
C1965      C1966   1.400       .  A
C1965      C1970   1.401       .  A
C1966      C1967   1.398       .  A
C1966      H1979   1.083       .  S
C1967      C1968   1.415       .  A
C1967      H1980   1.077       .  S
C1968      C1974   1.432       .  A
C1968      C1969   1.423       .  A
C1969      C1971   1.399       .  A
C1969      C1970   1.406       .  A
C1970      H1981   1.084       .  S
C1971      C1972   1.390       .  A
C1971      H1982   1.084       .  S
C1972      C1973   1.399       .  A
C1972      H1983   1.084       .  S
C1973      C1974   1.422       .  A
C1973      C1978   1.406       .  A
C1974      C1975   1.415       .  A
C1975      C1976   1.398       .  A
C1975      H1984   1.077       .  S
C1976      C1977   1.401       .  A
C1976      H1985   1.083       .  S
C1977      C1978   1.402       .  A
C1978      H1986   1.084       .  S
C1987      C1988   1.402       .  A
C1987      C1992   1.404       .  A
C1988      C1989   1.393       .  A
C1988      H2001   1.081   1_554  S
C1989      C1990   1.412       .  A
C1989      H2002   1.076   1_554  S
C1990      C1996   1.429       .  A
C1990      C1991   1.422       .  A
C1991      C1993   1.400       .  A
C1991      C1992   1.407       .  A
C1992      H2003   1.083       .  S
C1993      C1994   1.391       .  A
C1993      H2004   1.084       .  S
C1994      C1995   1.400       .  A
C1994      H2005   1.084       .  S
C1995      C1996   1.421       .  A
C1995      C2000   1.406       .  A
C1996      C1997   1.414       .  A
C1997      C1998   1.394       .  A
C1997      H2006   1.076   1_554  S
C1998      C1999   1.401       .  A
C1998      H2007   1.081   1_554  S
C1999      C2000   1.404       .  A
C2000      H2008   1.083       .  S
C2009      C2010   1.400       .  A
C2009      C2014   1.401       .  A
C2010      C2011   1.395       .  A
C2010      H2023   1.083       .  S
C2011      C2012   1.414       .  A
C2011      H2024   1.077       .  S
C2012      C2018   1.428       .  A
C2012      C2013   1.422       .  A
C2013      C2015   1.399       .  A
C2013      C2014   1.404       .  A
C2014      H2025   1.084       .  S
C2015      C2016   1.389       .  A
C2015      H2026   1.084       .  S
C2016      C2017   1.399       .  A
C2016      H2027   1.084       .  S
C2017      C2018   1.423       .  A
C2017      C2022   1.404       .  A
C2018      C2019   1.415       .  A
C2019      C2020   1.395       .  A
C2019      H2028   1.077       .  S
C2020      C2021   1.398       .  A
C2020      H2029   1.083       .  S
C2021      C2022   1.399       .  A
C2022      H2030   1.084       .  S
C2031      C2032   1.401       .  A
C2031      C2036   1.401       .  A
C2032      C2033   1.398       .  A
C2032      H2045   1.083       .  S
C2033      C2034   1.415       .  A
C2033      H2046   1.077       .  S
C2034      C2040   1.432       .  A
C2034      C2035   1.423       .  A
C2035      C2037   1.399       .  A
C2035      C2036   1.406       .  A
C2036      H2047   1.084       .  S
C2037      C2038   1.389       .  A
C2037      H2048   1.084       .  S
C2038      C2039   1.399       .  A
C2038      H2049   1.084       .  S
C2039      C2040   1.422       .  A
C2039      C2044   1.406       .  A
C2040      C2041   1.415       .  A
C2041      C2042   1.399       .  A
C2041      H2050   1.077       .  S
C2042      C2043   1.402       .  A
C2042      H2051   1.082       .  S
C2043      C2044   1.403       .  A
C2044      H2052   1.083       .  S
