geometry optimzed in LAMMPS
_audit_creation_date              2020-12-01 
_audit_creation_method            'lammps2cif' 
_symmetry_space_group_name_H-M    'P1' 
_symmetry_Int_Tables_number       1 
_symmetry_cell_setting            triclinic 
loop_ 
_symmetry_equiv_pos_as_xyz 
  x,y,z 
_cell_length_a                    29.71118032 
_cell_length_b                    30.237071555472358 
_cell_length_c                    28.911444476384037 
_cell_angle_alpha                 89.47439347867224 
_cell_angle_beta                  90.17400060002649 
_cell_angle_gamma                 89.85280212358764 
loop_ 
_atom_site_label 
_atom_site_type_symbol 
_atom_site_fract_x 
_atom_site_fract_y 
_atom_site_fract_z 
_atom_site_charge 
O1          O  0.30028204  0.30662222  0.46000824    -0.71900
O2          O  0.21858030  0.19283664  0.45887176    -0.72900
O3          O  0.20660449  0.28768933  0.45550029    -0.61500
O4          O  0.31322859  0.21082205  0.46059079    -0.70000
O5          O  0.30849787  0.20493478  0.03430440    -0.69500
O6          O  0.19988878  0.29350676  0.02927273    -0.60800
O7          O  0.21169138  0.20062629  0.03113900    -0.73300
O8          O  0.29726153  0.29848604  0.03489331    -0.72000
Cu9        Cu  0.25975575  0.24943578  0.45613534     1.04600
Cu10       Cu  0.25432870  0.24944485  0.03483270     1.04300
C11         C  0.30997374  0.32097953  0.99981172     0.94300
C12         C  0.20489368  0.17736975  0.49802791     0.93400
C13         C  0.18496846  0.30163587  0.49047246     0.85500
C14         C  0.32820438  0.19589357  0.99598886     0.91800
C15         C  0.18523177  0.06780568  0.04947611     0.87500
C16         C  0.13558325  0.07682749  0.05714670    -0.52800
C17         C  0.11060365  0.09227905  0.51762300     0.10400
C18         C  0.14487554  0.10795445  0.47946904     0.21400
C19         C  0.18769030  0.04204937  0.00380122    -0.53500
C20         C  0.16572263  0.06395868  0.46483900     0.10500
C21         C  0.20507397  0.11202150  0.03817820    -0.53000
C22         C  0.18487094  0.13238703  0.50489255     0.11100
H23         H  0.11924797  0.06269690  0.08743400     0.15600
H24         H  0.12932781  0.12735441  0.45078944     0.01300
H25         H  0.19950923  0.00813319  0.49604112     0.15900
H26         H  0.23336683  0.12515336  0.05766013     0.15700
C27         C  0.29282501  0.49201907  0.17125560    -0.09900
C28         C  0.26518977  0.52161112  0.14730640    -0.03700
C29         C  0.24756367  0.04004240  0.16511925    -0.09800
C30         C  0.24182887  0.03970439  0.21389892     0.11100
C31         C  0.25280461  0.51046386  0.24198161    -0.01600
C32         C  0.28829072  0.48755747  0.21962026     0.10900
C33         C  0.31786924  0.46114707  0.24605955    -0.11600
C34         C  0.31374262  0.45832576  0.29413281    -0.11600
C35         C  0.27942912  0.48119255  0.31731436     0.10900
C36         C  0.24838671  0.50730014  0.29076897    -0.01600
C37         C  0.21033245  0.06727694  0.23555416    -0.11800
C38         C  0.20537801  0.06667094  0.28355037    -0.11800
C39         C  0.23104018  0.03781872  0.31154831     0.11100
C40         C  0.22489882  0.03585438  0.35985373    -0.09800
C41         C  0.23998495  0.50259141  0.38686633    -0.03700
C42         C  0.27539867  0.47936059  0.36625609    -0.09900
H43         H  0.34498661  0.44314332  0.22982280     0.08400
H44         H  0.33793777  0.43828300  0.31303530     0.08400
H45         H  0.18944561  0.08984578  0.21571927     0.08500
H46         H  0.18074658  0.08867253  0.29860520     0.08500
H47         H  0.27175771  0.52769380  0.11088107     0.05000
H48         H  0.23610509  0.50091241  0.42409766     0.05000
C49         C  0.32593844  0.42908878  0.06155273     0.87500
C50         C  0.37671923  0.42742587  0.06147135    -0.52800
C51         C  0.40169896  0.41447446  0.51376360     0.10400
C52         C  0.36072024  0.40043669  0.48156291     0.21400
C53         C  0.31234427  0.45614871  0.01848453    -0.53500
C54         C  0.33258109  0.44321209  0.48046242     0.10500
C55         C  0.31240988  0.38286376  0.05125316    -0.53000
C56         C  0.32998625  0.36652806  0.51056851     0.11100
H57         H  0.39555607  0.44026610  0.09043438     0.15600
H58         H  0.37087145  0.38842335  0.44697148     0.01300
H59         H  0.30299608  0.48782619  0.52934706     0.15900
H60         H  0.28903217  0.36561790  0.07396933     0.15700
C61         C  0.08062647  0.34021152  0.42597645     0.87500
C62         C  0.12499634  0.31850653  0.43568609    -0.52800
C63         C  0.14142137  0.32687847  0.97841214     0.10400
C64         C  0.10805987  0.35430780  0.01055057     0.21400
C65         C  0.04937973  0.32305982  0.46494130    -0.53500
C66         C  0.06504414  0.32692464  0.00958899     0.10500
C67         C  0.09043417  0.38814133  0.43518068    -0.53000
C68         C  0.09250161  0.39730054  0.98318033     0.11100
H69         H  0.14147497  0.29794992  0.41029532     0.15600
H70         H  0.12119616  0.36084536  0.04578931     0.01300
H71         H  0.01775418  0.30311349  0.95921697     0.15900
H72         H  0.08283942  0.41249857  0.40829610     0.15700
C73         C  0.03188385  0.26896613  0.12351865    -0.09900
C74         C  0.00164077  0.23902242  0.10433681    -0.03700
C75         C  0.49695717  0.19833664  0.14582537    -0.10600
C76         C  0.49485899  0.20059504  0.19483706     0.11100
C77         C  0.00085317  0.25029428  0.19991670    -0.01600
C78         C  0.03370499  0.27259943  0.17234327     0.10900
C79         C  0.06695853  0.29781374  0.19439629    -0.11600
C80         C  0.06825527  0.30100241  0.24250121    -0.11600
C81         C  0.03526480  0.28060226  0.27005220     0.10900
C82         C  0.00082996  0.25534014  0.24869705    -0.01600
C83         C  0.47423921  0.16737816  0.22171106    -0.11800
C84         C  0.47203640  0.17058093  0.27005608    -0.11800
C85         C  0.49014600  0.20725950  0.29321124     0.11100
C86         C  0.48825168  0.21132682  0.34223875    -0.09800
C87         C  0.99939653  0.26794406  0.34400220    -0.03700
C88         C  0.03453714  0.28615031  0.31835314    -0.09900
H89         H  0.09255493  0.31496518  0.17472858     0.08400
H90         H  0.09462530  0.32067177  0.25796206     0.08400
H91         H  0.45968469  0.13864057  0.20540048     0.08500
H92         H  0.45611863  0.14399503  0.28917371     0.08500
H93         H  0.00290497  0.23280603  0.06744877     0.05000
H94         H  0.99837742  0.27416428  0.38078779     0.05000
C95         C  0.44641579  0.16179919  0.45847502     0.87500
C96         C  0.40194461  0.18585541  0.46047075    -0.52800
C97         C  0.37187857  0.17118582  0.99255773     0.10400
C98         C  0.39300133  0.13434807  0.02499371     0.21400
C99         C  0.46618250  0.16601754  0.50793834    -0.53500
C100        C  0.43692056  0.15535881  0.04189665     0.10500
C101        C  0.43393779  0.11426590  0.45297366    -0.53000
C102        C  0.40980837  0.09635989  0.99255231     0.11100
H103        H  0.39407507  0.21326397  0.43718246     0.15600
H104        H  0.37027137  0.12319113  0.05316678     0.01300
H105        H  0.49550688  0.18675530  0.01228985     0.15900
H106        H  0.45039424  0.09529339  0.42600798     0.15700
O107        O  0.44042989  0.03712103  0.04321125    -0.71900
O108        O  0.04381520  0.43972750  0.03909573    -0.72900
O109        O  0.05072825  0.05115691  0.04748718    -0.61500
O110        O  0.45447465  0.46360581  0.04593030    -0.70000
O111        O  0.45595159  0.45851629  0.46436445    -0.69500
O112        O  0.05010372  0.05900577  0.46999754    -0.60800
O113        O  0.04318068  0.45401076  0.45991693    -0.73300
O114        O  0.43448653  0.02747462  0.46094520    -0.72000
Cu115      Cu  0.99121777  0.48745965  0.04578462     1.04600
Cu116      Cu  0.99077403  0.49233946  0.46043009     1.04300
C117        C  0.42703635  0.04949305  0.49742768     0.94300
C118        C  0.06214408  0.43432586  0.49395534     0.93400
C119        C  0.06596658  0.06961870  0.50987599     0.85500
C120        C  0.43941690  0.44775538  0.50399424     0.91800
C121        C  0.47707969  0.17752904  0.42019919    -0.15400
C122        C  0.46450690  0.18043473  0.37487028    -0.30600
H123        H  0.51005938  0.18913786  0.43080186     0.13600
H124        H  0.43285275  0.16597557  0.36394568     0.14200
C125        C  0.44214665  0.17299095  0.08933705    -0.15400
C126        C  0.47736354  0.16283188  0.11688753    -0.30600
H127        H  0.42155162  0.20159590  0.09756649     0.13600
H128        H  0.49909565  0.13530691  0.10784795     0.14200
C129        C  0.07065903  0.30775687  0.34548640    -0.15400
C130        C  0.05808887  0.33504082  0.37953990    -0.30600
H131        H  0.10414533  0.29361457  0.34408000     0.13600
H132        H  0.02465252  0.34977960  0.37730046     0.14200
C133        C  0.04012604  0.31036145  0.05034685    -0.15400
C134        C  0.05923590  0.29603460  0.09030688    -0.30600
H135        H  0.00423508  0.30551689  0.04508420     0.13600
H136        H  0.09491109  0.30084368  0.09648800     0.14200
C137        C  0.30588646  0.45297685  0.39783179    -0.15400
C138        C  0.31788702  0.46956418  0.43933245    -0.30600
H139        H  0.31334742  0.41878965  0.38966938     0.13600
H140        H  0.31024348  0.50409169  0.44601264     0.14200
C141        C  0.30262652  0.44592828  0.10404403    -0.15400
C142        C  0.32169480  0.46369122  0.14211197    -0.30600
H143        H  0.26610466  0.44697403  0.10094011     0.13600
H144        H  0.35738728  0.46193037  0.14928920     0.14200
C145        C  0.16668240  0.04637942  0.41754996    -0.15400
C146        C  0.19358630  0.06496836  0.38565434    -0.30600
H147        H  0.16004841  0.01112826  0.41483458     0.13600
H148        H  0.20266796  0.09962183  0.38846172     0.14200
C149        C  0.20822908  0.04437943  0.08948064    -0.15400
C150        C  0.21699060  0.06298774  0.13116143    -0.30600
H151        H  0.22002946  0.01100712  0.08284889     0.13600
H152        H  0.20376557  0.09560408  0.13871908     0.14200
O153        O  0.29994687  0.30735177  0.95909228    -0.71900
O154        O  0.21815496  0.19412061  0.95527837    -0.72900
O155        O  0.20608298  0.28902461  0.95340236    -0.61500
O156        O  0.31271747  0.21195371  0.95823146    -0.70000
O157        O  0.31085192  0.20598749  0.53692077    -0.69500
O158        O  0.19910159  0.29140727  0.53126412    -0.60800
O159        O  0.21452585  0.19774603  0.53507298    -0.73300
O160        O  0.29598608  0.30019556  0.53588099    -0.72000
Cu161      Cu  0.25933436  0.25064829  0.95372921     1.04600
Cu162      Cu  0.25512389  0.24892820  0.53733734     1.04300
C163        C  0.30932948  0.32181933  0.50034963     0.94300
C164        C  0.20321315  0.17955028  0.99428765     0.93400
C165        C  0.18501415  0.30322349  0.98867170     0.85500
C166        C  0.32964245  0.19583655  0.49838368     0.91800
C167        C  0.18151377  0.06356774  0.54792442     0.87500
C168        C  0.13250897  0.07442176  0.55536883    -0.52800
C169        C  0.11254398  0.09200533  0.01870796     0.10400
C170        C  0.14551686  0.10712852  0.97933106     0.21400
C171        C  0.18398394  0.04034514  0.50076070    -0.53500
C172        C  0.16744977  0.06300875  0.96700802     0.10500
C173        C  0.20341714  0.10773878  0.54002609    -0.53000
C174        C  0.18495847  0.13417650  0.00240151     0.11100
H175        H  0.11542449  0.05991659  0.58504433     0.15600
H176        H  0.12864783  0.12438107  0.94995280     0.01300
H177        H  0.20351090  0.00975625  0.00094866     0.15900
H178        H  0.23159972  0.11885096  0.56096811     0.15700
C179        C  0.27541595  0.46279283  0.67088298    -0.09900
C180        C  0.24963909  0.49276687  0.64533437    -0.03700
C181        C  0.23206628  0.01924905  0.66459453    -0.09800
C182        C  0.22596886  0.01986801  0.71334743     0.11100
C183        C  0.24309585  0.49268570  0.74128112    -0.01600
C184        C  0.27307575  0.46288924  0.71934736     0.10900
C185        C  0.30114661  0.43544085  0.74629141    -0.11600
C186        C  0.30058889  0.43764737  0.79435707    -0.11600
C187        C  0.27109768  0.46654449  0.81701679     0.10900
C188        C  0.24151303  0.49388555  0.79023452    -0.01600
C189        C  0.19712631  0.05042232  0.73463339    -0.11800
C190        C  0.19330493  0.05184614  0.78272578    -0.11800
C191        C  0.21814284  0.02277235  0.81121777     0.11100
C192        C  0.21517741  0.02442325  0.85982073    -0.09800
C193        C  0.23906889  0.49711618  0.88656306    -0.03700
C194        C  0.27078669  0.46962152  0.86572802    -0.09900
H195        H  0.32459212  0.41280521  0.73029715     0.08400
H196        H  0.32356545  0.41655350  0.81361582     0.08400
H197        H  0.17744367  0.07376473  0.71447609     0.08500
H198        H  0.17093921  0.07621482  0.79752168     0.08500
H199        H  0.25439871  0.49376608  0.60824136     0.05000
H200        H  0.23767451  0.49829876  0.92402105     0.05000
C201        C  0.33776804  0.42727647  0.56381854     0.87500
C202        C  0.38734356  0.41944612  0.55839267    -0.52800
C203        C  0.39606985  0.41759923  0.01954510     0.10400
C204        C  0.35987376  0.39999314  0.98401692     0.21400
C205        C  0.32195142  0.45755737  0.52371602    -0.53500
C206        C  0.32937493  0.44072704  0.97788290     0.10500
C207        C  0.31824581  0.38310617  0.55295346    -0.53000
C208        C  0.32890842  0.36577193  0.01112832     0.11100
H209        H  0.40957312  0.42707228  0.58723589     0.15600
H210        H  0.37417468  0.38720827  0.95131786     0.01300
H211        H  0.29044994  0.48496530  0.02000563     0.15900
H212        H  0.29590557  0.36637013  0.57691272     0.15700
C213        C  0.07867371  0.34006326  0.92681102     0.87500
C214        C  0.12409610  0.31995582  0.93490476    -0.52800
C215        C  0.14183452  0.32585565  0.47928405     0.10400
C216        C  0.10908879  0.35547854  0.50986802     0.21400
C217        C  0.04893739  0.32069024  0.96585161    -0.53500
C218        C  0.06496740  0.32962955  0.50888531     0.10500
C219        C  0.08694843  0.38802620  0.93721727    -0.53000
C220        C  0.09601555  0.39842477  0.48086680     0.11100
H221        H  0.14084595  0.30070108  0.90859260     0.15600
H222        H  0.12196344  0.36243436  0.54510793     0.01300
H223        H  0.01790003  0.30608610  0.45808041     0.15900
H224        H  0.07819600  0.41277533  0.91108660     0.15700
C225        C  0.03150324  0.27199235  0.62348274    -0.09900
C226        C  0.00348364  0.24013342  0.60410520    -0.03700
C227        C  0.49638618  0.20168732  0.64336241    -0.10600
C228        C  0.49385853  0.20288866  0.69237192     0.11100
C229        C  0.00085303  0.25128690  0.69970337    -0.01600
C230        C  0.03221537  0.27598171  0.67238788     0.10900
C231        C  0.06293500  0.30381560  0.69480598    -0.11600
C232        C  0.06368649  0.30668521  0.74295820    -0.11600
C233        C  0.03240078  0.28342591  0.77019560     0.10900
C234        C  0.99991064  0.25618231  0.74848825    -0.01600
C235        C  0.47435144  0.16836045  0.71841022    -0.11800
C236        C  0.47167470  0.17042420  0.76683769    -0.11800
C237        C  0.48870589  0.20695336  0.79099657     0.11100
C238        C  0.48635194  0.20990165  0.84021631    -0.09800
C239        C  0.99708353  0.26796669  0.84391814    -0.03700
C240        C  0.03154573  0.28788559  0.81858180    -0.09900
H241        H  0.08707241  0.32315846  0.67541365     0.08400
H242        H  0.08824358  0.32828540  0.75873091     0.08400
H243        H  0.46074486  0.13958683  0.70133601     0.08500
H244        H  0.45633937  0.14306117  0.78526820     0.08500
H245        H  0.00520030  0.23407850  0.56720996     0.05000
H246        H  0.99567356  0.27370643  0.88077732     0.05000
C247        C  0.44508169  0.16072253  0.95725157     0.87500
C248        C  0.40006261  0.18387311  0.95758446    -0.52800
C249        C  0.37345696  0.17139119  0.49436108     0.10400
C250        C  0.39394273  0.13207317  0.52400947     0.21400
C251        C  0.46460615  0.16854219  0.00634985    -0.53500
C252        C  0.43802274  0.15150723  0.54252625     0.10500
C253        C  0.43373347  0.11262018  0.95555827    -0.53000
C254        C  0.41032895  0.09583897  0.48884186     0.11100
H255        H  0.39179116  0.20968887  0.93253700     0.15600
H256        H  0.37094617  0.11943840  0.55126181     0.01300
H257        H  0.49738578  0.18335254  0.51500920     0.15900
H258        H  0.45067816  0.09209547  0.93022572     0.15700
O259        O  0.44459111  0.03639003  0.53592897    -0.71900
O260        O  0.04794703  0.44285291  0.53494543    -0.72900
O261        O  0.04709674  0.05442627  0.54610747    -0.61500
O262        O  0.45361008  0.46837917  0.53937117    -0.70000
O263        O  0.45386262  0.45588839  0.97038771    -0.69500
O264        O  0.05281046  0.05717894  0.97140927    -0.60800
O265        O  0.03632901  0.44984619  0.96424245    -0.73300
O266        O  0.43149881  0.02675283  0.96835745    -0.72000
Cu267      Cu  0.99457316  0.48934796  0.54105295     1.04600
Cu268      Cu  0.98565306  0.48931425  0.96522355     1.04300
C269        C  0.42427139  0.04990615  0.00384236     0.94300
C270        C  0.05702702  0.43119436  0.99770219     0.93400
C271        C  0.06885913  0.06743652  0.01135833     0.85500
C272        C  0.43755722  0.44564958  0.01032713     0.91800
C273        C  0.47570752  0.17492159  0.91794529    -0.15400
C274        C  0.46302531  0.17799384  0.87251558    -0.30600
H275        H  0.50876603  0.18661670  0.92818563     0.13600
H276        H  0.43133131  0.16363633  0.86157440     0.14200
C277        C  0.44288099  0.16670939  0.59105171    -0.15400
C278        C  0.48213996  0.16418871  0.61406428    -0.30600
H279        H  0.41618614  0.18765511  0.60431783     0.13600
H280        H  0.50893192  0.14411613  0.59960395     0.14200
C281        C  0.06753777  0.30940018  0.84590605    -0.15400
C282        C  0.05503688  0.33538578  0.88096105    -0.30600
H283        H  0.10136486  0.29623181  0.84335113     0.13600
H284        H  0.02115300  0.34921985  0.88000731     0.14200
C285        C  0.03965712  0.31288265  0.54956504    -0.15400
C286        C  0.05820633  0.30009839  0.59044715    -0.30600
H287        H  0.00417761  0.30631806  0.54348859     0.13600
H288        H  0.09339833  0.30669893  0.59759547     0.14200
C289        C  0.30131575  0.44395835  0.89715492    -0.15400
C290        C  0.31922571  0.46413452  0.93414283    -0.30600
H291        H  0.30258241  0.40817912  0.89440506     0.13600
H292        H  0.31652178  0.49993403  0.93636262     0.14200
C293        C  0.32797330  0.44865973  0.60947729    -0.15400
C294        C  0.30297753  0.43166867  0.64378633    -0.30600
H295        H  0.33718457  0.48345188  0.61142839     0.13600
H296        H  0.29513013  0.39674687  0.64601714     0.14200
C297        C  0.16369280  0.04128891  0.92193005    -0.15400
C298        C  0.18712232  0.05651918  0.88554003    -0.30600
H299        H  0.15632891  0.00605988  0.92351057     0.13600
H300        H  0.19662297  0.09116475  0.88366142     0.14200
C301        C  0.20096076  0.03548640  0.58642551    -0.15400
C302        C  0.20807002  0.04889778  0.63050072    -0.30600
H303        H  0.20821452  0.00153261  0.57718543     0.13600
H304        H  0.19803934  0.08201390  0.64028408     0.14200
O305        O  0.27577140  0.80325726  0.45963122    -0.71900
O306        O  0.19150050  0.69157270  0.45729926    -0.72900
O307        O  0.18064187  0.78766272  0.46283150    -0.61500
O308        O  0.28482523  0.70844598  0.45063968    -0.70000
O309        O  0.29061196  0.69352082  0.02491488    -0.69500
O310        O  0.18233067  0.78282053  0.03698392    -0.60800
O311        O  0.19347893  0.68943039  0.03094849    -0.73300
O312        O  0.27943927  0.78585846  0.03380966    -0.72000
Cu313      Cu  0.23280925  0.74806693  0.45499931     1.04600
Cu314      Cu  0.23653598  0.73769719  0.03404309     1.04300
C315        C  0.28991962  0.80938267  0.99883358     0.94300
C316        C  0.18330707  0.67314759  0.49668487     0.93400
C317        C  0.16266550  0.79933751  0.50086696     0.85500
C318        C  0.30597902  0.68597470  0.98412706     0.91800
C319        C  0.16404335  0.55848329  0.05070872     0.87500
C320        C  0.11420315  0.56689556  0.05606801    -0.52800
C321        C  0.09207930  0.58571805  0.51531124     0.10400
C322        C  0.12744866  0.60012072  0.47789271     0.21400
C323        C  0.16939482  0.53181159  0.00599756    -0.53500
C324        C  0.14959194  0.55554189  0.46719713     0.10500
C325        C  0.18307792  0.60284975  0.03924815    -0.53000
C326        C  0.16567760  0.62709159  0.50354582     0.11100
H327        H  0.09743703  0.55419322  0.08679168     0.15600
H328        H  0.11255161  0.61734738  0.44740089     0.01300
H329        H  0.18282236  0.50233465  0.50318094     0.15900
H330        H  0.21040173  0.61664753  0.05964503     0.15700
C331        C  0.30453730  0.98246302  0.17226354    -0.09900
C332        C  0.28257499  0.01520648  0.14666167    -0.03700
C333        C  0.22611360  0.53846961  0.16674532    -0.09800
C334        C  0.22083692  0.53533128  0.21530695     0.11100
C335        C  0.26845124  0.01033697  0.24182991    -0.01600
C336        C  0.29931871  0.98084804  0.22070469     0.10900
C337        C  0.32373145  0.95074805  0.24835989    -0.11600
C338        C  0.31873492  0.94999612  0.29640406    -0.11600
C339        C  0.28836061  0.97863495  0.31837353     0.10900
C340        C  0.26273967  0.00902843  0.29064803    -0.01600
C341        C  0.18501828  0.55616976  0.23792126    -0.11800
C342        C  0.18154853  0.55435036  0.28595777    -0.11800
C343        C  0.21298944  0.53047461  0.31285667     0.11100
C344        C  0.20929650  0.52822595  0.36129395    -0.09800
C345        C  0.25071420  0.00634505  0.38641040    -0.03700
C346        C  0.28287479  0.97815683  0.36721960    -0.09900
H347        H  0.34748732  0.92802394  0.23298640     0.08400
H348        H  0.33894637  0.92673067  0.31615496     0.08400
H349        H  0.15989866  0.57482587  0.21878012     0.08500
H350        H  0.15367641  0.57150666  0.30190960     0.08500
H351        H  0.29011279  0.01807623  0.11005825     0.05000
H352        H  0.24507025  0.00513793  0.42337399     0.05000
C353        C  0.32095994  0.91150436  0.06548888     0.87500
C354        C  0.37070654  0.90052170  0.06309056    -0.52800
C355        C  0.39417022  0.89052458  0.51143905     0.10400
C356        C  0.34996913  0.88539375  0.48128930     0.21400
C357        C  0.31053604  0.94326529  0.02477342    -0.53500
C358        C  0.33061298  0.93239317  0.48294959     0.10500
C359        C  0.29910387  0.86908927  0.05241191    -0.53000
C360        C  0.31467713  0.85703155  0.51046071     0.11100
H361        H  0.39273317  0.90651244  0.09226716     0.15600
H362        H  0.35627440  0.87290459  0.44594225     0.01300
H363        H  0.31302765  0.98001965  0.53478817     0.15900
H364        H  0.27428735  0.85368221  0.07493728     0.15700
C365        C  0.05303377  0.84080986  0.44896582     0.87500
C366        C  0.09500190  0.81402815  0.45673769    -0.52800
C367        C  0.11999422  0.82084083  0.99454677     0.10400
C368        C  0.09600837  0.85739985  0.02562915     0.21400
C369        C  0.02477654  0.83235131  0.49268093    -0.53500
C370        C  0.04872536  0.83813390  0.03370568     0.10500
C371        C  0.06918043  0.88763608  0.45059119    -0.53000
C372        C  0.08527970  0.89877606  0.99327265     0.11100
H373        H  0.10536203  0.78873134  0.43247258     0.15600
H374        H  0.11480023  0.86571037  0.05759257     0.01300
H375        H  0.99251279  0.81586673  0.99311031     0.15900
H376        H  0.06050580  0.90949846  0.42180950     0.15700
C377        C  0.03416084  0.77219054  0.14385885    -0.09900
C378        C  0.01575915  0.73536957  0.12219222    -0.03700
C379        C  0.47196387  0.71038614  0.12858197    -0.10600
C380        C  0.47100639  0.71540090  0.17691914     0.11100
C381        C  0.01299567  0.73984216  0.21879419    -0.01600
C382        C  0.03366873  0.77438045  0.19255777     0.10900
C383        C  0.05248280  0.81059197  0.21553879    -0.11600
C384        C  0.05116860  0.81320565  0.26347296    -0.11600
C385        C  0.03100400  0.77969368  0.29009194     0.10900
C386        C  0.01160255  0.74248396  0.26786293    -0.01600
C387        C  0.43815392  0.69443343  0.20415981    -0.11800
C388        C  0.43691347  0.70044129  0.25190335    -0.11800
C389        C  0.46863333  0.72745031  0.27399491     0.11100
C390        C  0.46736226  0.73455913  0.32230751    -0.09800
C391        C  0.00940242  0.74859001  0.36379686    -0.03700
C392        C  0.02875424  0.78281111  0.33846349    -0.09900
H393        H  0.06816880  0.83742005  0.19654636     0.08400
H394        H  0.06579593  0.84203355  0.27951687     0.08400
H395        H  0.41296752  0.67338280  0.18862067     0.08500
H396        H  0.41085777  0.68366474  0.27127884     0.08500
H397        H  0.01741510  0.73329240  0.08476783     0.05000
H398        H  0.00845152  0.75196168  0.40084350     0.05000
C399        C  0.42114263  0.68424878  0.43739165     0.87500
C400        C  0.37019572  0.68342201  0.43479011    -0.52800
C401        C  0.34999324  0.66247343  0.97472769     0.10400
C402        C  0.38473537  0.64541621  0.01230559     0.21400
C403        C  0.43196548  0.70870471  0.48242317    -0.53500
C404        C  0.41160622  0.68749463  0.02144112     0.10500
C405        C  0.43436031  0.63731894  0.44621191    -0.53000
C406        C  0.41983292  0.61447149  0.98756815     0.11100
H407        H  0.35255244  0.70065039  0.40706673     0.15600
H408        H  0.36917403  0.63052883  0.04362721     0.01300
H409        H  0.45109502  0.73542997  0.98373338     0.15900
H410        H  0.45941394  0.62157187  0.42436923     0.15700
O411        O  0.45612884  0.55989644  0.04140360    -0.71900
O412        O  0.04771396  0.95401711  0.04515105    -0.72900
O413        O  0.03457044  0.53427933  0.04465166    -0.61500
O414        O  0.44556148  0.93941292  0.04447739    -0.70000
O415        O  0.44476440  0.93480801  0.45978622    -0.69500
O416        O  0.03580899  0.54660600  0.46611404    -0.60800
O417        O  0.04678288  0.96703780  0.46956888    -0.73300
O418        O  0.45280816  0.55304557  0.46256771    -0.72000
Cu419      Cu  0.00160039  0.00806495  0.04771922     1.04600
Cu420      Cu  0.99937424  0.01060303  0.46672612     1.04300
C421        C  0.43956037  0.57506180  0.49727636     0.94300
C422        C  0.05957929  0.94491983  0.50477312     0.93400
C423        C  0.05122864  0.55719796  0.50629478     0.85500
C424        C  0.43299768  0.92169637  0.50037902     0.91800
C425        C  0.44823555  0.70180955  0.39747408    -0.15400
C426        C  0.43404423  0.71422693  0.35485869    -0.30600
H427        H  0.48419807  0.70192283  0.40467730     0.13600
H428        H  0.39913056  0.71071134  0.34466817     0.14200
C429        C  0.41754467  0.70809458  0.06675936    -0.15400
C430        C  0.43767769  0.68610057  0.10168273    -0.30600
H431        H  0.41916094  0.74407494  0.06649435     0.13600
H432        H  0.43905187  0.65018283  0.10191723     0.14200
C433        C  0.04839519  0.81937651  0.36575691    -0.15400
C434        C  0.02767426  0.83120765  0.40517352    -0.30600
H435        H  0.08359736  0.82744007  0.36031584     0.13600
H436        H  0.99196159  0.82411269  0.40882706     0.14200
C437        C  0.02925201  0.82313120  0.07817335    -0.15400
C438        C  0.05409186  0.80678696  0.11329826    -0.30600
H439        H  0.99332536  0.81615996  0.07809791     0.13600
H440        H  0.09020924  0.81194728  0.11455534     0.14200
C441        C  0.30765223  0.94767833  0.40000776    -0.15400
C442        C  0.31914735  0.96155458  0.44284724    -0.30600
H443        H  0.31174793  0.91317729  0.39092629     0.13600
H444        H  0.31548184  0.99645982  0.45071015     0.14200
C445        C  0.30295634  0.92928013  0.11040562    -0.15400
C446        C  0.32727372  0.94810299  0.14459821    -0.30600
H447        H  0.26660253  0.93395984  0.11076191     0.13600
H448        H  0.36351787  0.94545977  0.14692697     0.14200
C449        C  0.15315954  0.53467333  0.42168447    -0.15400
C450        C  0.17623850  0.55460154  0.38780009    -0.30600
H451        H  0.15127524  0.49871599  0.42156080     0.13600
H452        H  0.18034959  0.59030458  0.38776472     0.14200
C453        C  0.18604069  0.53677554  0.09219575    -0.15400
C454        C  0.19193481  0.55668555  0.13364427    -0.30600
H455        H  0.20134902  0.50457939  0.08659434     0.13600
H456        H  0.17555345  0.58802987  0.14068502     0.14200
O457        O  0.27585739  0.79824745  0.95845639    -0.71900
O458        O  0.19165214  0.68666075  0.95461649    -0.72900
O459        O  0.18069660  0.78251558  0.96065952    -0.61500
O460        O  0.28586777  0.70306845  0.94925046    -0.70000
O461        O  0.29194473  0.70096337  0.52640290    -0.69500
O462        O  0.18023632  0.78579414  0.53917052    -0.60800
O463        O  0.19606315  0.69197894  0.53364051    -0.73300
O464        O  0.27672934  0.79350913  0.53540094    -0.72000
Cu465      Cu  0.23326712  0.74290631  0.95299205     1.04600
Cu466      Cu  0.23629958  0.74293753  0.53617664     1.04300
C467        C  0.28889013  0.81560759  0.49992626     0.94300
C468        C  0.18137867  0.66985030  0.99421261     0.93400
C469        C  0.16380791  0.79545199  0.99882501     0.85500
C470        C  0.30597871  0.69246131  0.48530203     0.91800
C471        C  0.16220724  0.56056169  0.55045247     0.87500
C472        C  0.11310773  0.57242449  0.55567143    -0.52800
C473        C  0.09210422  0.57983298  0.01607601     0.10400
C474        C  0.12636001  0.59511296  0.97785584     0.21400
C475        C  0.16658756  0.53453039  0.50521928    -0.53500
C476        C  0.15059150  0.55143531  0.96775407     0.10500
C477        C  0.18408702  0.60420167  0.54026599    -0.53000
C478        C  0.16364515  0.62409638  0.00235581     0.11100
H479        H  0.09536599  0.56093953  0.58635111     0.15600
H480        H  0.11040673  0.61118343  0.94724389     0.01300
H481        H  0.18736756  0.50050258  0.00447260     0.15900
H482        H  0.21134643  0.61667120  0.56161313     0.15700
C483        C  0.28299232  0.95596892  0.67316083    -0.09900
C484        C  0.26293014  0.98922852  0.64660213    -0.03700
C485        C  0.21806897  0.52086531  0.66542266    -0.09800
C486        C  0.21478081  0.52126016  0.71432378     0.11100
C487        C  0.24983807  0.98871128  0.74178445    -0.01600
C488        C  0.27730860  0.95575154  0.72137112     0.10900
C489        C  0.30002463  0.92495174  0.74966978    -0.11600
C490        C  0.29765683  0.92752492  0.79768529    -0.11600
C491        C  0.27149982  0.96025675  0.81894601     0.10900
C492        C  0.24631124  0.99045203  0.79067398    -0.01600
C493        C  0.18406096  0.54887331  0.73707068    -0.11800
C494        C  0.18184164  0.54937352  0.78525635    -0.11800
C495        C  0.21053385  0.52257673  0.81231546     0.11100
C496        C  0.20864617  0.52288136  0.86098092    -0.09800
C497        C  0.24173299  0.99591864  0.88673681    -0.03700
C498        C  0.27041869  0.96445884  0.86764349    -0.09900
H499        H  0.32116740  0.89957038  0.73481949     0.08400
H500        H  0.31696775  0.90392111  0.81795630     0.08400
H501        H  0.16133919  0.57023471  0.71786174     0.08500
H502        H  0.15757859  0.57116558  0.80123134     0.08500
H503        H  0.27088103  0.99067971  0.61018355     0.05000
H504        H  0.23956904  0.99813349  0.92401820     0.05000
C505        C  0.33661712  0.91251890  0.56558116     0.87500
C506        C  0.38336407  0.89483641  0.55714082    -0.52800
C507        C  0.38664330  0.89296992  0.01926875     0.10400
C508        C  0.34690570  0.88300808  0.98462831     0.21400
C509        C  0.32526411  0.94696023  0.52724434    -0.53500
C510        C  0.32291871  0.92786464  0.98232625     0.10500
C511        C  0.30777580  0.87363575  0.55397358    -0.53000
C512        C  0.31201730  0.85225786  0.01074479     0.11100
H513        H  0.40844544  0.89704137  0.58457902     0.15600
H514        H  0.35803517  0.87024734  0.95064274     0.01300
H515        H  0.29348470  0.97479950  0.02914850     0.15900
H516        H  0.28390018  0.85978579  0.57837979     0.15700
C517        C  0.05349154  0.83855555  0.94932195     0.87500
C518        C  0.09536874  0.81126288  0.95586641    -0.52800
C519        C  0.11867714  0.82409430  0.49583060     0.10400
C520        C  0.09379977  0.86059287  0.52607557     0.21400
C521        C  0.02605993  0.83013146  0.99355794    -0.53500
C522        C  0.04659306  0.84087004  0.53327671     0.10500
C523        C  0.07030987  0.88510282  0.95080278    -0.53000
C524        C  0.08328994  0.90163637  0.49330268     0.11100
H525        H  0.10495441  0.78614394  0.93108158     0.15600
H526        H  0.11192921  0.86931714  0.55830952     0.01300
H527        H  0.99149226  0.81754828  0.49161229     0.15900
H528        H  0.06145581  0.90713504  0.92221872     0.15700
C529        C  0.03275705  0.77489821  0.64333659    -0.09900
C530        C  0.01733895  0.73698449  0.62128631    -0.03700
C531        C  0.47028639  0.71597227  0.62892007    -0.10600
C532        C  0.46886683  0.72043920  0.67728031     0.11100
C533        C  0.01050897  0.74194561  0.71765086    -0.01600
C534        C  0.03053734  0.77724978  0.69198013     0.10900
C535        C  0.04731826  0.81412060  0.71546412    -0.11600
C536        C  0.04549478  0.81618236  0.76342635    -0.11600
C537        C  0.02642790  0.78164385  0.78951393     0.10900
C538        C  0.00803903  0.74429008  0.76669982    -0.01600
C539        C  0.43695419  0.69764848  0.70415579    -0.11800
C540        C  0.43578499  0.70232353  0.75209302    -0.11800
C541        C  0.46654695  0.72990542  0.77480949     0.11100
C542        C  0.46584564  0.73494111  0.82356089    -0.09800
C543        C  0.00483705  0.74925827  0.86266960    -0.03700
C544        C  0.02447331  0.78378293  0.83795208    -0.09900
H545        H  0.06223906  0.84163204  0.69688440     0.08400
H546        H  0.05890473  0.84534155  0.77994143     0.08400
H547        H  0.41264853  0.67589835  0.68820962     0.08500
H548        H  0.41068448  0.68387021  0.77114814     0.08500
H549        H  0.02068486  0.73469380  0.58399731     0.05000
H550        H  0.00346171  0.75211720  0.89972450     0.05000
C551        C  0.42183656  0.67980049  0.93807573     0.87500
C552        C  0.37094971  0.67644641  0.93462307    -0.52800
C553        C  0.34946506  0.66899269  0.47485639     0.10400
C554        C  0.38393309  0.64979327  0.51135652     0.21400
C555        C  0.43070658  0.70564232  0.98272542    -0.53500
C556        C  0.41253795  0.69062608  0.52095981     0.10500
C557        C  0.43719214  0.63364929  0.94864752    -0.53000
C558        C  0.41700290  0.61804891  0.48491448     0.11100
H559        H  0.35304364  0.69198971  0.90604407     0.15600
H560        H  0.36823566  0.63489863  0.54260235     0.01300
H561        H  0.45303411  0.73801934  0.48365585     0.15900
H562        H  0.46322812  0.61836141  0.92769269     0.15700
O563        O  0.45338482  0.56391291  0.53793759    -0.71900
O564        O  0.04573271  0.95715411  0.54492513    -0.72900
O565        O  0.03587075  0.53753142  0.54177847    -0.61500
O566        O  0.45134155  0.93983897  0.53529165    -0.70000
O567        O  0.43955827  0.93499451  0.96878119    -0.69500
O568        O  0.03302606  0.54207148  0.96884906    -0.60800
O569        O  0.04978863  0.96492969  0.96997110    -0.73300
O570        O  0.45527387  0.54932052  0.96602769    -0.72000
Cu571      Cu  0.99895649  0.01074521  0.54761471     1.04600
Cu572      Cu  0.00227355  0.00864804  0.96688041     1.04300
C573        C  0.44236239  0.57142403  0.00063082     0.94300
C574        C  0.06199355  0.94222772  0.00503411     0.93400
C575        C  0.05000797  0.55258962  0.00843678     0.85500
C576        C  0.42695970  0.92220258  0.00924596     0.91800
C577        C  0.44858615  0.69831724  0.89792206    -0.15400
C578        C  0.43379544  0.71188029  0.85576211    -0.30600
H579        H  0.48452241  0.69970639  0.90499104     0.13600
H580        H  0.39890531  0.70786266  0.84576075     0.14200
C581        C  0.41735405  0.71174499  0.56608062    -0.15400
C582        C  0.43726279  0.69053024  0.60160417    -0.30600
H583        H  0.41814570  0.74775236  0.56541247     0.13600
H584        H  0.43933734  0.65465531  0.60238237     0.14200
C585        C  0.04582785  0.81895286  0.86586771    -0.15400
C586        C  0.02668311  0.82990624  0.90630441    -0.30600
H587        H  0.08099334  0.82653897  0.85947271     0.13600
H588        H  0.99091351  0.82362762  0.91090381     0.14200
C589        C  0.02690078  0.82539432  0.57745890    -0.15400
C590        C  0.05173546  0.81031114  0.61320918    -0.30600
H591        H  0.99130801  0.81698052  0.57673583     0.13600
H592        H  0.08758597  0.81685579  0.61514947     0.14200
C593        C  0.29679111  0.93613428  0.90077067    -0.15400
C594        C  0.31347079  0.95384127  0.93990861    -0.30600
H595        H  0.29681494  0.90049920  0.89639001     0.13600
H596        H  0.31294266  0.98956682  0.94388602     0.14200
C597        C  0.33367630  0.93349569  0.61258993    -0.15400
C598        C  0.30631238  0.92085267  0.64704381    -0.30600
H599        H  0.34933400  0.96593092  0.61497027     0.13600
H600        H  0.29223793  0.88786838  0.64859751     0.14200
C601        C  0.15402446  0.53037119  0.92235679    -0.15400
C602        C  0.17666978  0.55011551  0.88787559    -0.30600
H603        H  0.15192106  0.49442659  0.92253392     0.13600
H604        H  0.18138195  0.58574590  0.88770490     0.14200
C605        C  0.18041479  0.53392925  0.59064522    -0.15400
C606        C  0.19078922  0.54931470  0.63308080    -0.30600
H607        H  0.18595954  0.49907977  0.58374430     0.13600
H608        H  0.18290725  0.58324730  0.64198372     0.14200
O609        O  0.77786901  0.30449540  0.45606798    -0.71900
O610        O  0.69139935  0.19342990  0.45532734    -0.72900
O611        O  0.68227020  0.28962889  0.45926779    -0.61500
O612        O  0.78596419  0.20866305  0.44898941    -0.70000
O613        O  0.79181692  0.19487188  0.02543117    -0.69500
O614        O  0.68258973  0.28248820  0.03717095    -0.60800
O615        O  0.69516025  0.18949694  0.03226029    -0.73300
O616        O  0.77964486  0.28674364  0.03381304    -0.72000
Cu617      Cu  0.73416455  0.24929719  0.45213163     1.04600
Cu618      Cu  0.73739640  0.23818642  0.03455315     1.04300
C619        C  0.79015478  0.30985000  0.99858203     0.94300
C620        C  0.68201561  0.17732959  0.49550863     0.93400
C621        C  0.66482566  0.30224068  0.49727398     0.85500
C622        C  0.80673048  0.18690536  0.98457573     0.91800
C623        C  0.65431404  0.06285002  0.05792653     0.87500
C624        C  0.60510193  0.07513254  0.05886593    -0.52800
C625        C  0.58347571  0.09228418  0.50712663     0.10400
C626        C  0.62635055  0.10287520  0.47654750     0.21400
C627        C  0.66184248  0.03311023  0.01563796    -0.53500
C628        C  0.65049539  0.05806516  0.47755509     0.10500
C629        C  0.67689699  0.10524458  0.04521593    -0.53000
C630        C  0.65913879  0.13390861  0.50573747     0.11100
H631        H  0.58553363  0.06672353  0.08943793     0.15600
H632        H  0.61823318  0.11542745  0.44131129     0.01300
H633        H  0.67390680  0.01099031  0.52848963     0.15900
H634        H  0.70353273  0.11867932  0.06676389     0.15700
C635        C  0.80304376  0.48140085  0.17303736    -0.09900
C636        C  0.78200043  0.51483238  0.14770632    -0.03700
C637        C  0.71773376  0.04492568  0.17059910    -0.09800
C638        C  0.71455804  0.03913329  0.21894663     0.11100
C639        C  0.76624669  0.50898367  0.24225102    -0.01600
C640        C  0.79758012  0.47975648  0.22140467     0.10900
C641        C  0.82252567  0.45034977  0.24928393    -0.11600
C642        C  0.81820812  0.45068389  0.29735493    -0.11600
C643        C  0.78777445  0.47951048  0.31904170     0.10900
C644        C  0.76101865  0.50856451  0.29104124    -0.01600
C645        C  0.68093241  0.06015169  0.24484964    -0.11800
C646        C  0.67925042  0.05513032  0.29291949    -0.11800
C647        C  0.71029286  0.02784625  0.31653613     0.11100
C648        C  0.70883017  0.02228463  0.36536021    -0.09800
C649        C  0.75165093  0.50912905  0.38709834    -0.03700
C650        C  0.78344060  0.48050985  0.36788605    -0.09900
H651        H  0.84651756  0.42774615  0.23412695     0.08400
H652        H  0.83921398  0.42830131  0.31733608     0.08400
H653        H  0.65626724  0.08138296  0.22818095     0.08500
H654        H  0.65298491  0.07238780  0.31136550     0.08500
H655        H  0.79070817  0.51868418  0.11147607     0.05000
H656        H  0.74713305  0.50925644  0.42425939     0.05000
C657        C  0.82019178  0.41287109  0.06431422     0.87500
C658        C  0.87013251  0.40279473  0.06251133    -0.52800
C659        C  0.89540632  0.39262786  0.51120346     0.10400
C660        C  0.85199656  0.38792737  0.47987971     0.21400
C661        C  0.80977873  0.44402374  0.02305869    -0.53500
C662        C  0.83231238  0.43482373  0.48234596     0.10500
C663        C  0.79895334  0.37008203  0.05159140    -0.53000
C664        C  0.81630257  0.35870780  0.50745526     0.11100
H665        H  0.89180661  0.41001767  0.09160996     0.15600
H666        H  0.85924073  0.37627552  0.44440017     0.01300
H667        H  0.81305232  0.48121378  0.53478326     0.15900
H668        H  0.77398872  0.35480784  0.07404787     0.15700
C669        C  0.55332646  0.34142826  0.44723952     0.87500
C670        C  0.59640111  0.31601718  0.45387305    -0.52800
C671        C  0.62002276  0.31932635  0.99416500     0.10400
C672        C  0.59571117  0.35540844  0.02521659     0.21400
C673        C  0.52628809  0.33203498  0.49144270    -0.53500
C674        C  0.54849844  0.33580291  0.03277375     0.10500
C675        C  0.56751705  0.38875651  0.44899640    -0.53000
C676        C  0.58523176  0.39678023  0.99307720     0.11100
H677        H  0.60701866  0.29115190  0.42925942     0.15600
H678        H  0.61432592  0.36364605  0.05730469     0.01300
H679        H  0.49275381  0.31306334  0.99173121     0.15900
H680        H  0.55670194  0.41057356  0.42094874     0.15700
C681        C  0.53585985  0.26932695  0.14263830    -0.09900
C682        C  0.51810892  0.23213497  0.12108859    -0.03700
C683        C  0.96814025  0.21838167  0.13034052    -0.10600
C684        C  0.96737479  0.22377284  0.17866707     0.11100
C685        C  0.51386244  0.23779252  0.21753234    -0.01600
C686        C  0.53463283  0.27215570  0.19123920     0.10900
C687        C  0.55264513  0.30890216  0.21401934    -0.11600
C688        C  0.55042491  0.31219901  0.26187243    -0.11600
C689        C  0.53003234  0.27891036  0.28860822     0.10900
C690        C  0.51144628  0.24119283  0.26648902    -0.01600
C691        C  0.93419312  0.20361804  0.20612891    -0.11800
C692        C  0.93381649  0.20903466  0.25399995    -0.11800
C693        C  0.96658898  0.23487880  0.27607556     0.11100
C694        C  0.96669867  0.24071829  0.32473477    -0.09800
C695        C  0.50612103  0.24914106  0.36214953    -0.03700
C696        C  0.52659590  0.28281495  0.33690598    -0.09900
H697        H  0.56836791  0.33564100  0.19492398     0.08400
H698        H  0.56433134  0.34146816  0.27771735     0.08400
H699        H  0.90824505  0.18339479  0.19069850     0.08500
H700        H  0.90760958  0.19260983  0.27344736     0.08500
H701        H  0.52013531  0.22979370  0.08369890     0.05000
H702        H  0.50371318  0.25296327  0.39908105     0.05000
C703        C  0.92268519  0.18711072  0.44006197     0.87500
C704        C  0.87188178  0.18375566  0.43572310    -0.52800
C705        C  0.85112238  0.16455735  0.97522537     0.10400
C706        C  0.88582622  0.14894844  0.01320194     0.21400
C707        C  0.93084069  0.21260495  0.48506004    -0.53500
C708        C  0.91112020  0.19206634  0.02241722     0.10500
C709        C  0.93797611  0.14083932  0.45057080    -0.53000
C710        C  0.92182794  0.11886387  0.98887257     0.11100
H711        H  0.85431103  0.19974878  0.40720336     0.15600
H712        H  0.87029096  0.13369900  0.04434670     0.01300
H713        H  0.94915317  0.24120924  0.98476752     0.15900
H714        H  0.96420055  0.12549686  0.42991658     0.15700
O715        O  0.95558768  0.06192981  0.04152580    -0.71900
O716        O  0.54859020  0.45217334  0.04532172    -0.72900
O717        O  0.53285265  0.03318716  0.04311782    -0.61500
O718        O  0.94666539  0.43989746  0.04448576    -0.70000
O719        O  0.94652893  0.43812816  0.46148464    -0.69500
O720        O  0.53152217  0.04615443  0.45776074    -0.60800
O721        O  0.55380274  0.47096018  0.46701893    -0.73300
O722        O  0.95224749  0.05512776  0.46583260    -0.72000
Cu723      Cu  0.50264177  0.50642641  0.04790833     1.04600
Cu724      Cu  0.50327569  0.51155921  0.46316221     1.04300
C725        C  0.93980711  0.07695989  0.50082784     0.94300
C726        C  0.56316860  0.44727066  0.50226568     0.93400
C727        C  0.54831133  0.05663975  0.49729068     0.85500
C728        C  0.93442993  0.42389801  0.50152142     0.91800
C729        C  0.94951698  0.20590862  0.40016657    -0.15400
C730        C  0.93465839  0.21887170  0.35777260    -0.30600
H731        H  0.98540755  0.20741809  0.40739132     0.13600
H732        H  0.89980441  0.21458413  0.34787270     0.14200
C733        C  0.91495106  0.21384361  0.06745423    -0.15400
C734        C  0.93430052  0.19316068  0.10369193    -0.30600
H735        H  0.91604650  0.24983836  0.06624779     0.13600
H736        H  0.93604161  0.15727543  0.10506808     0.14200
C737        C  0.54708129  0.31903711  0.36420166    -0.15400
C738        C  0.52721886  0.33129305  0.40396054    -0.30600
H739        H  0.58218631  0.32699046  0.35797689     0.13600
H740        H  0.49150642  0.32463886  0.40833931     0.14200
C741        C  0.52939976  0.31982083  0.07693343    -0.15400
C742        C  0.55477664  0.30427187  0.11201225    -0.30600
H743        H  0.49372729  0.31168194  0.07672743     0.13600
H744        H  0.59067033  0.31066376  0.11347211     0.14200
C745        C  0.80865599  0.45040817  0.40041054    -0.15400
C746        C  0.82117714  0.46445975  0.44272752    -0.30600
H747        H  0.81196794  0.41572953  0.39171551     0.13600
H748        H  0.81798850  0.49940434  0.45063428     0.14200
C749        C  0.80149855  0.43088762  0.10878020    -0.15400
C750        C  0.82514632  0.44682445  0.14510678    -0.30600
H751        H  0.76539144  0.43715322  0.10772198     0.13600
H752        H  0.86080193  0.44112084  0.14990686     0.14200
C753        C  0.66427794  0.03151483  0.43704813    -0.15400
C754        C  0.67911145  0.04882899  0.39664655    -0.30600
H755        H  0.66833825  0.99624341  0.44340668     0.13600
H756        H  0.67485037  0.08391027  0.38952965     0.14200
C757        C  0.67117180  0.04165561  0.10192215    -0.15400
C758        C  0.68188049  0.06405557  0.14064886    -0.30600
H759        H  0.68207030  0.00736536  0.09939376     0.13600
H760        H  0.67114909  0.09805825  0.14541334     0.14200
O761        O  0.77608996  0.29813423  0.95832970    -0.71900
O762        O  0.69159137  0.18599092  0.95611449    -0.72900
O763        O  0.68103135  0.28162347  0.96084234    -0.61500
O764        O  0.78593011  0.20287184  0.94962231    -0.70000
O765        O  0.79222311  0.20233941  0.52492443    -0.69500
O766        O  0.68313171  0.28995195  0.53561866    -0.60800
O767        O  0.69623749  0.19706590  0.53129645    -0.73300
O768        O  0.77977140  0.29461075  0.53175109    -0.72000
Cu769      Cu  0.73343865  0.24238129  0.95347103     1.04600
Cu770      Cu  0.73796812  0.24586101  0.53323992     1.04300
C771        C  0.79141022  0.31684831  0.49628255     0.94300
C772        C  0.68178012  0.16975079  0.99611769     0.93400
C773        C  0.66396758  0.29452851  0.99885974     0.85500
C774        C  0.80662587  0.19303273  0.48423339     0.91800
C775        C  0.64402642  0.07489901  0.56040583     0.87500
C776        C  0.59570767  0.08882166  0.55273939    -0.52800
C777        C  0.58654431  0.08418844  0.01606508     0.10400
C778        C  0.62448870  0.09620451  0.98000035     0.21400
C779        C  0.65807908  0.04283304  0.52152655    -0.53500
C780        C  0.64790493  0.05129066  0.97465535     0.10500
C781        C  0.66855668  0.11653579  0.54896183    -0.53000
C782        C  0.66123200  0.12524084  0.00564584     0.11100
H783        H  0.57151980  0.08391531  0.58055032     0.15600
H784        H  0.61169333  0.11094062  0.94719267     0.01300
H785        H  0.67920921  0.00145251  0.01758996     0.15900
H786        H  0.69165822  0.13130656  0.57341510     0.15700
C787        C  0.77964800  0.45350335  0.67159099    -0.09900
C788        C  0.75909608  0.48644158  0.64502387    -0.03700
C789        C  0.70119117  0.03425494  0.66999919    -0.09800
C790        C  0.70531075  0.03487865  0.71843492     0.11100
C791        C  0.74929634  0.48799217  0.74066594    -0.01600
C792        C  0.77534108  0.45405972  0.71997063     0.10900
C793        C  0.79789823  0.42300061  0.74810874    -0.11600
C794        C  0.79621158  0.42579122  0.79617027    -0.11600
C795        C  0.77089327  0.45904289  0.81763906     0.10900
C796        C  0.74643063  0.48997644  0.78959187    -0.01600
C797        C  0.67823545  0.06276804  0.74516255    -0.11800
C798        C  0.67951784  0.06035789  0.79325044    -0.11800
C799        C  0.70898411  0.03098127  0.81611338     0.11100
C800        C  0.70926475  0.02705939  0.86472461    -0.09800
C801        C  0.74129413  0.49448457  0.88566246    -0.03700
C802        C  0.76980589  0.46300105  0.86635510    -0.09900
H803        H  0.81808614  0.39697018  0.73305452     0.08400
H804        H  0.81506337  0.40175440  0.81631961     0.08400
H805        H  0.65462179  0.08551199  0.72900301     0.08500
H806        H  0.65697046  0.08154387  0.81236849     0.08500
H807        H  0.76564866  0.48672355  0.60828578     0.05000
H808        H  0.73875057  0.49611079  0.92296018     0.05000
C809        C  0.83643490  0.41324847  0.56444474     0.87500
C810        C  0.88354908  0.39618686  0.55673800    -0.52800
C811        C  0.88659251  0.39459935  0.01907400     0.10400
C812        C  0.84725957  0.38366879  0.98413959     0.21400
C813        C  0.82581886  0.44845443  0.52677459    -0.53500
C814        C  0.82280247  0.42818770  0.98097342     0.10500
C815        C  0.80815542  0.37459345  0.55105820    -0.53000
C816        C  0.81227798  0.35291092  0.01021622     0.11100
H817        H  0.90797050  0.39813163  0.58481283     0.15600
H818        H  0.85884701  0.37061284  0.95044254     0.01300
H819        H  0.79230410  0.47541473  0.02679891     0.15900
H820        H  0.78367504  0.36030433  0.57452021     0.15700
C821        C  0.55368502  0.33666042  0.94847101     0.87500
C822        C  0.59580738  0.30974678  0.95519685    -0.52800
C823        C  0.62046673  0.32638507  0.49263227     0.10400
C824        C  0.59522766  0.36189017  0.52367830     0.21400
C825        C  0.52609226  0.32777764  0.99245971    -0.53500
C826        C  0.54844905  0.34103290  0.53169377     0.10500
C827        C  0.56982669  0.38343446  0.95056489    -0.53000
C828        C  0.58381546  0.40273972  0.49092401     0.11100
H829        H  0.60581520  0.28480129  0.93039855     0.15600
H830        H  0.61370539  0.37072075  0.55568339     0.01300
H831        H  0.49325785  0.31665275  0.49090697     0.15900
H832        H  0.56049646  0.40569177  0.92233943     0.15700
C833        C  0.53275370  0.27416447  0.64162557    -0.09900
C834        C  0.51537052  0.23718249  0.61923359    -0.03700
C835        C  0.97113577  0.21751742  0.62990519    -0.10600
C836        C  0.96969928  0.22247365  0.67819616     0.11100
C837        C  0.51171431  0.24003732  0.71595685    -0.01600
C838        C  0.53187243  0.27545214  0.69047433     0.10900
C839        C  0.54992958  0.31147887  0.71439212    -0.11600
C840        C  0.54826015  0.31311783  0.76242609    -0.11600
C841        C  0.52809069  0.27898784  0.78823518     0.10900
C842        C  0.50948944  0.24191871  0.76508842    -0.01600
C843        C  0.93799262  0.19969304  0.70533831    -0.11800
C844        C  0.93655641  0.20511195  0.75317792    -0.11800
C845        C  0.96687127  0.23342955  0.77553351     0.11100
C846        C  0.96581792  0.23939282  0.82417941    -0.09800
C847        C  0.50361543  0.24759441  0.86092807    -0.03700
C848        C  0.52485585  0.28148459  0.83664414    -0.09900
H849        H  0.56529824  0.33889583  0.69605755     0.08400
H850        H  0.56223004  0.34188964  0.77918401     0.08400
H851        H  0.91401640  0.17740981  0.68967115     0.08500
H852        H  0.91157695  0.18670103  0.77242499     0.08500
H853        H  0.51738303  0.23562193  0.58178399     0.05000
H854        H  0.50057577  0.25086870  0.89785498     0.05000
C855        C  0.92269336  0.18420316  0.93925701     0.87500
C856        C  0.87194899  0.17910900  0.93525856    -0.52800
C857        C  0.85037576  0.16939893  0.47526476     0.10400
C858        C  0.88432184  0.15205961  0.51321990     0.21400
C859        C  0.93008622  0.21058418  0.98380244    -0.53500
C860        C  0.91112222  0.19401968  0.52323099     0.10500
C861        C  0.93955242  0.13859812  0.95041714    -0.53000
C862        C  0.91948464  0.12120478  0.48869849     0.11100
H863        H  0.85374937  0.19406673  0.90653375     0.15600
H864        H  0.86816478  0.13691612  0.54408473     0.01300
H865        H  0.95114137  0.24241563  0.48671041     0.15900
H866        H  0.96602306  0.12370333  0.92973317     0.15700
O867        O  0.95244849  0.06406700  0.54152964    -0.71900
O868        O  0.54714533  0.45868294  0.54177853    -0.72900
O869        O  0.53712406  0.03359409  0.53243601    -0.61500
O870        O  0.95240726  0.44106523  0.53716836    -0.70000
O871        O  0.93957421  0.43673103  0.96880886    -0.69500
O872        O  0.52963270  0.04349887  0.96783106    -0.60800
O873        O  0.55228134  0.46398913  0.97034521    -0.73300
O874        O  0.95527118  0.05317031  0.96581581    -0.72000
Cu875      Cu  0.50040305  0.51193976  0.54363384     1.04600
Cu876      Cu  0.50365484  0.50630625  0.96725015     1.04300
C877        C  0.94278112  0.07486067  0.00087701     0.94300
C878        C  0.56330934  0.44064477  0.00526240     0.93400
C879        C  0.54664956  0.05374509  0.00744661     0.85500
C880        C  0.92730650  0.42347209  0.00919159     0.91800
C881        C  0.94907832  0.20343727  0.89915413    -0.15400
C882        C  0.93414686  0.21620369  0.85673348    -0.30600
H883        H  0.98489369  0.20595817  0.90646716     0.13600
H884        H  0.89944719  0.21109048  0.84659351     0.14200
C885        C  0.91622661  0.21403826  0.56886829    -0.15400
C886        C  0.93777648  0.19222691  0.60296707    -0.30600
H887        H  0.91620131  0.25004341  0.56935513     0.13600
H888        H  0.94107642  0.15644542  0.60212962     0.14200
C889        C  0.54661560  0.31618071  0.86499307    -0.15400
C890        C  0.52724942  0.32788020  0.90513111    -0.30600
H891        H  0.58196940  0.32313627  0.85894603     0.13600
H892        H  0.49132693  0.32232865  0.90937909     0.14200
C893        C  0.52863708  0.32582245  0.57612929    -0.15400
C894        C  0.55292587  0.30936790  0.61167633    -0.30600
H895        H  0.49276124  0.31861164  0.57553239     0.13600
H896        H  0.58899388  0.31475702  0.61350303     0.14200
C897        C  0.79648802  0.43498467  0.89942493    -0.15400
C898        C  0.81352940  0.45336077  0.93807136    -0.30600
H899        H  0.79633807  0.39928956  0.89562765     0.13600
H900        H  0.81306722  0.48915347  0.94138197     0.14200
C901        C  0.83192546  0.43284251  0.61198645    -0.15400
C902        C  0.80373355  0.41903686  0.64530486    -0.30600
H903        H  0.84711862  0.46535978  0.61575480     0.13600
H904        H  0.78968265  0.38602211  0.64550066     0.14200
C905        C  0.65847199  0.02936248  0.93082860    -0.15400
C906        C  0.67776205  0.05119657  0.89542996    -0.30600
H907        H  0.66082364  0.99344299  0.93201100     0.13600
H908        H  0.67709016  0.08710683  0.89392445     0.14200
C909        C  0.65018451  0.05273007  0.60704620    -0.15400
C910        C  0.67569914  0.06735303  0.64211097    -0.30600
H911        H  0.63814046  0.01878844  0.60902906     0.13600
H912        H  0.68612541  0.10159059  0.64404378     0.14200
O913        O  0.80046717  0.80803738  0.46257694    -0.71900
O914        O  0.72049974  0.69403075  0.45897990    -0.72900
O915        O  0.70745556  0.78844794  0.45587094    -0.61500
O916        O  0.81464287  0.71281975  0.46258171    -0.70000
O917        O  0.80914064  0.70800597  0.03647817    -0.69500
O918        O  0.69796414  0.79369995  0.03035550    -0.60800
O919        O  0.71257505  0.70069715  0.03340873    -0.73300
O920        O  0.79515283  0.80250434  0.03593243    -0.72000
Cu921      Cu  0.76098140  0.75082517  0.45746995     1.04600
Cu922      Cu  0.75374463  0.75130598  0.03657165     1.04300
C923        C  0.80791646  0.82389938  0.00003030     0.94300
C924        C  0.70690057  0.67813597  0.49793145     0.93400
C925        C  0.68478055  0.80157933  0.49046637     0.85500
C926        C  0.82811358  0.69767072  0.99810527     0.91800
C927        C  0.68627693  0.56668234  0.04901020     0.87500
C928        C  0.63653380  0.57444676  0.05677214    -0.52800
C929        C  0.61088877  0.59588585  0.51704434     0.10400
C930        C  0.64584286  0.60992334  0.47888000     0.21400
C931        C  0.68948980  0.54226627  0.00260038    -0.53500
C932        C  0.66498324  0.56498087  0.46485526     0.10500
C933        C  0.70529330  0.61159354  0.03935228    -0.53000
C934        C  0.68668048  0.63320562  0.50414451     0.11100
H935        H  0.62048433  0.55921595  0.08665169     0.15600
H936        H  0.63106650  0.62953950  0.44993044     0.01300
H937        H  0.69649394  0.50836128  0.49680342     0.15900
H938        H  0.73335408  0.62458103  0.05929262     0.15700
C939        C  0.78241764  0.99566697  0.16751571    -0.09900
C940        C  0.75475667  0.02760686  0.14741050    -0.03700
C941        C  0.74577538  0.53829712  0.16548469    -0.09800
C942        C  0.73894579  0.53740192  0.21404121     0.11100
C943        C  0.74616037  0.01107030  0.24182702    -0.01600
C944        C  0.77950979  0.98813856  0.21581678     0.10900
C945        C  0.80842071  0.95833950  0.23875156    -0.11600
C946        C  0.80571310  0.95203667  0.28647108    -0.11600
C947        C  0.77373302  0.97498466  0.31280695     0.10900
C948        C  0.74335109  0.00461008  0.29043045    -0.01600
C949        C  0.70613213  0.56380397  0.23524470    -0.11800
C950        C  0.70148645  0.56394295  0.28326142    -0.11800
C951        C  0.72885354  0.53703551  0.31165257     0.11100
C952        C  0.72418195  0.53682123  0.36013741    -0.09800
C953        C  0.73978411  0.99333683  0.38632319    -0.03700
C954        C  0.77163733  0.96964806  0.36114657    -0.09900
H955        H  0.83370292  0.93991374  0.22016108     0.08400
H956        H  0.82908182  0.92911264  0.30270029     0.08400
H957        H  0.68426331  0.58518482  0.21509473     0.08500
H958        H  0.67612015  0.58529587  0.29805767     0.08500
H959        H  0.75912203  0.03571338  0.11102761     0.05000
H960        H  0.74047617  0.98996156  0.42365308     0.05000
C961        C  0.81938484  0.93692986  0.05393956     0.87500
C962        C  0.87021782  0.93583858  0.05720281    -0.52800
C963        C  0.89130141  0.92327934  0.51955259     0.10400
C964        C  0.85896208  0.90138779  0.48302789     0.21400
C965        C  0.80890875  0.96073073  0.00792783    -0.53500
C966        C  0.83015165  0.94107839  0.46799366     0.10500
C967        C  0.80635827  0.88981903  0.04632399    -0.53000
C968        C  0.82477999  0.87075603  0.51071516     0.11100
H969        H  0.88706984  0.95262824  0.08521105     0.15600
H970        H  0.87659802  0.88466803  0.45423282     0.01300
H971        H  0.78833381  0.99084064  0.49871068     0.15900
H972        H  0.78157850  0.87393129  0.06852155     0.15700
C973        C  0.57948042  0.83534114  0.42473858     0.87500
C974        C  0.62437517  0.81495415  0.43517859    -0.52800
C975        C  0.63952270  0.82618185  0.97880963     0.10400
C976        C  0.60564301  0.85319848  0.01055601     0.21400
C977        C  0.54863293  0.81877597  0.46432653    -0.53500
C978        C  0.56319925  0.82485097  0.00977458     0.10500
C979        C  0.58783715  0.88375465  0.43211990    -0.53000
C980        C  0.58966058  0.89570824  0.98261392     0.11100
H981        H  0.64134457  0.79388505  0.41057904     0.15600
H982        H  0.61865643  0.86021865  0.04574001     0.01300
H983        H  0.51669046  0.79920929  0.95964017     0.15900
H984        H  0.57922317  0.90706910  0.40455085     0.15700
C985        C  0.53426975  0.76263586  0.12223145    -0.09900
C986        C  0.50502231  0.73192986  0.10274978    -0.03700
C987        C  0.99534081  0.70111864  0.14695351    -0.10600
C988        C  0.99352072  0.70300501  0.19598315     0.11100
C989        C  0.50372105  0.74267058  0.19836008    -0.01600
C990        C  0.53599938  0.76596147  0.17102774     0.10900
C991        C  0.56844659  0.79204111  0.19325155    -0.11600
C992        C  0.56955976  0.79503880  0.24136493    -0.11600
C993        C  0.53690370  0.77385586  0.26865114     0.10900
C994        C  0.50311527  0.74793964  0.24703138    -0.01600
C995        C  0.97289869  0.66967759  0.22277225    -0.11800
C996        C  0.97138119  0.67231345  0.27122321    -0.11800
C997        C  0.99049143  0.70835770  0.29460606     0.11100
C998        C  0.98999253  0.71156291  0.34384470    -0.09800
C999        C  0.49991462  0.76167190  0.34193541    -0.03700
C1000       C  0.53558810  0.77949905  0.31689052    -0.09900
H1001       H  0.59358105  0.80997261  0.17370689     0.08400
H1002       H  0.59530965  0.81534597  0.25701855     0.08400
H1003       H  0.95779402  0.64129739  0.20630460     0.08500
H1004       H  0.95546795  0.64566979  0.29026304     0.08500
H1005       H  0.50616930  0.72643784  0.06571682     0.05000
H1006       H  0.49811409  0.76836288  0.37859358     0.05000
C1007       C  0.94728033  0.66318704  0.46072427     0.87500
C1008       C  0.90332401  0.68800091  0.46295420    -0.52800
C1009       C  0.87172793  0.67274498  0.99454888     0.10400
C1010       C  0.89273409  0.63522040  0.02636681     0.21400
C1011       C  0.96728516  0.66694765  0.51025157    -0.53500
C1012       C  0.93639211  0.65608898  0.04387475     0.10500
C1013       C  0.93370027  0.61597031  0.45510681    -0.53000
C1014       C  0.91005665  0.59763520  0.99350120     0.11100
H1015       H  0.89576510  0.71548153  0.43965201     0.15600
H1016       H  0.86986527  0.62358446  0.05421061     0.01300
H1017       H  0.99518622  0.68793692  0.01509876     0.15900
H1018       H  0.94946099  0.59703360  0.42768529     0.15700
O1019       O  0.94159507  0.53805752  0.04378975    -0.71900
O1020       O  0.54181784  0.93859856  0.03850311    -0.72900
O1021       O  0.55160853  0.54950324  0.04761956    -0.61500
O1022       O  0.95291619  0.96496878  0.04561477    -0.70000
O1023       O  0.94888443  0.96131941  0.47093158    -0.69500
O1024       O  0.55098185  0.56278439  0.46851194    -0.60800
O1025       O  0.54185732  0.95194484  0.45516346    -0.73300
O1026       O  0.93782256  0.53028616  0.46428577    -0.72000
Cu1027     Cu  0.48981570  0.98659083  0.04510998     1.04600
Cu1028     Cu  0.48814433  0.98989593  0.45572797     1.04300
C1029       C  0.92805116  0.55158573  0.50056753     0.94300
C1030       C  0.56047011  0.93184074  0.48933382     0.93400
C1031       C  0.56656627  0.57269290  0.50872438     0.85500
C1032       C  0.93344681  0.95012755  0.51097723     0.91800
C1033       C  0.97816609  0.67818107  0.42219818    -0.15400
C1034       C  0.96569100  0.68118684  0.37675090    -0.30600
H1035       H  0.01150579  0.68874282  0.43276946     0.13600
H1036       H  0.93368752  0.66741359  0.36593477     0.14200
C1037       C  0.94100596  0.67279203  0.09173479    -0.15400
C1038       C  0.97751334  0.66480075  0.11808173    -0.30600
H1039       H  0.91800057  0.69906944  0.10153451     0.13600
H1040       H  0.00126480  0.63954056  0.10733421     0.14200
C1041       C  0.57097392  0.80163834  0.34456774    -0.15400
C1042       C  0.55727274  0.82852860  0.37850128    -0.30600
H1043       H  0.60490499  0.78851985  0.34337317     0.13600
H1044       H  0.52350498  0.84247291  0.37587887     0.14200
C1045       C  0.53952439  0.80660727  0.05051695    -0.15400
C1046       C  0.56000168  0.79152368  0.08941355    -0.30600
H1047       H  0.50373201  0.80062864  0.04583133     0.13600
H1048       H  0.59564337  0.79720493  0.09495038     0.14200
C1049       C  0.80265858  0.94104450  0.38840120    -0.15400
C1050       C  0.82768831  0.96025530  0.42113917    -0.30600
H1051       H  0.79455385  0.90611352  0.39126490     0.13600
H1052       H  0.83224095  0.99591678  0.41901590     0.14200
C1053       C  0.79397372  0.95697013  0.09397758    -0.15400
C1054       C  0.81108432  0.96965187  0.13535331    -0.30600
H1055       H  0.75812174  0.96149562  0.08772391     0.13600
H1056       H  0.84542275  0.96223144  0.14527564     0.14200
C1057       C  0.66605315  0.54689546  0.41778706    -0.15400
C1058       C  0.69237043  0.56566904  0.38554208    -0.30600
H1059       H  0.66015298  0.51147742  0.41548206     0.13600
H1060       H  0.70086263  0.60049613  0.38795503     0.14200
C1061       C  0.70915640  0.54288013  0.08859839    -0.15400
C1062       C  0.71555705  0.56070703  0.13105520    -0.30600
H1063       H  0.72243256  0.51019033  0.08125300     0.13600
H1064       H  0.70056767  0.59249844  0.13897369     0.14200
O1065       O  0.79877108  0.80837751  0.95982808    -0.71900
O1066       O  0.71755023  0.69477371  0.95736640    -0.72900
O1067       O  0.70504578  0.78941720  0.95454490    -0.61500
O1068       O  0.81201870  0.71271783  0.96016800    -0.70000
O1069       O  0.81211599  0.70890902  0.53897411    -0.69500
O1070       O  0.69839815  0.79160094  0.53152876    -0.60800
O1071       O  0.71626244  0.69826376  0.53523342    -0.73300
O1072       O  0.79495338  0.80348916  0.53871886    -0.72000
Cu1073     Cu  0.75850034  0.75133321  0.95534434     1.04600
Cu1074     Cu  0.75544545  0.75062800  0.53874437     1.04300
C1075       C  0.80814753  0.82442944  0.50270083     0.94300
C1076       C  0.70344201  0.67981198  0.99651002     0.93400
C1077       C  0.68337916  0.80323238  0.98958230     0.85500
C1078       C  0.83099339  0.69836224  0.50059070     0.91800
C1079       C  0.68064636  0.56507959  0.54792114     0.87500
C1080       C  0.63219199  0.57838538  0.55533528    -0.52800
C1081       C  0.61328153  0.59046139  0.01890915     0.10400
C1082       C  0.64611726  0.60719803  0.98001828     0.21400
C1083       C  0.68212298  0.54115388  0.50111800    -0.53500
C1084       C  0.66896758  0.56386330  0.96637043     0.10500
C1085       C  0.70451662  0.60816174  0.53938441    -0.53000
C1086       C  0.68502745  0.63434206  0.00413024     0.11100
H1087       H  0.61459300  0.56535855  0.58542626     0.15600
H1088       H  0.62903226  0.62494272  0.95110074     0.01300
H1089       H  0.70570340  0.51024207  0.99895471     0.15900
H1090       H  0.73295122  0.61858217  0.56036012     0.15700
C1091       C  0.75877596  0.97655805  0.66511791    -0.09900
C1092       C  0.72525015  0.00302345  0.64512449    -0.03700
C1093       C  0.73075702  0.51845102  0.66364568    -0.09800
C1094       C  0.72627799  0.51998416  0.71250802     0.11100
C1095       C  0.73578717  0.00511311  0.74068678    -0.01600
C1096       C  0.76372082  0.97671942  0.71397522     0.10900
C1097       C  0.79539601  0.94964501  0.73697598    -0.11600
C1098       C  0.79834250  0.94891383  0.78523282    -0.11600
C1099       C  0.76966805  0.97513831  0.81217543     0.10900
C1100       C  0.73834393  0.00389876  0.78968529    -0.01600
C1101       C  0.69965689  0.55221381  0.73411967    -0.11800
C1102       C  0.69638215  0.55379935  0.78221173    -0.11800
C1103       C  0.71962678  0.52328044  0.81041493     0.11100
C1104       C  0.71622747  0.52438601  0.85900548    -0.09800
C1105       C  0.74106383  0.99955637  0.88610826    -0.03700
C1106       C  0.77167488  0.97414495  0.86104936    -0.09900
H1107       H  0.81806843  0.92852196  0.71800889     0.08400
H1108       H  0.82302002  0.92731624  0.80136408     0.08400
H1109       H  0.68098053  0.57650796  0.71419476     0.08500
H1110       H  0.67543844  0.57923634  0.79722752     0.08500
H1111       H  0.71869335  0.00075100  0.60838724     0.05000
H1112       H  0.74190082  0.99772266  0.92359987     0.05000
C1113       C  0.81755528  0.93999244  0.55141499     0.87500
C1114       C  0.86790873  0.93845760  0.55716027    -0.52800
C1115       C  0.89225507  0.92234244  0.01795459     0.10400
C1116       C  0.85845972  0.90211141  0.98158771     0.21400
C1117       C  0.80899840  0.96146212  0.50375027    -0.53500
C1118       C  0.82881793  0.94241555  0.97001115     0.10500
C1119       C  0.80391129  0.89253656  0.54601205    -0.53000
C1120       C  0.82556059  0.86985515  0.00904119     0.11100
H1121       H  0.88317673  0.95648207  0.58552877     0.15600
H1122       H  0.87495928  0.88702494  0.95113864     0.01300
H1123       H  0.78785125  0.99012978  0.00566122     0.15900
H1124       H  0.77813380  0.87773722  0.56777664     0.15700
C1125       C  0.57650115  0.83752586  0.92695868     0.87500
C1126       C  0.62247795  0.81863878  0.93531657    -0.52800
C1127       C  0.64099392  0.82411526  0.47846762     0.10400
C1128       C  0.60766641  0.85396947  0.50791856     0.21400
C1129       C  0.54722109  0.81790674  0.96613439    -0.53500
C1130       C  0.56407257  0.82717852  0.50799936     0.10500
C1131       C  0.58318561  0.88573961  0.93690851    -0.53000
C1132       C  0.59393816  0.89560470  0.47717498     0.11100
H1133       H  0.63972613  0.79948652  0.90926485     0.15600
H1134       H  0.62038657  0.86236545  0.54286822     0.01300
H1135       H  0.51753695  0.80091929  0.45808940     0.15900
H1136       H  0.57348953  0.90989520  0.91054119     0.15700
C1137       C  0.53091478  0.77028188  0.62309997    -0.09900
C1138       C  0.50285272  0.73864847  0.60345413    -0.03700
C1139       C  0.99763302  0.70200895  0.64549080    -0.10600
C1140       C  0.99327260  0.70434590  0.69432962     0.11100
C1141       C  0.50031800  0.74873485  0.69913850    -0.01600
C1142       C  0.53175685  0.77363680  0.67208138     0.10900
C1143       C  0.56272099  0.80094561  0.69482806    -0.11600
C1144       C  0.56359509  0.80320500  0.74304201    -0.11600
C1145       C  0.53228684  0.77972302  0.77005901     0.10900
C1146       C  0.49963306  0.75287210  0.74802416    -0.01600
C1147       C  0.97287678  0.67044080  0.72049929    -0.11800
C1148       C  0.96987191  0.67299232  0.76889320    -0.11800
C1149       C  0.98752121  0.70936471  0.79287960     0.11100
C1150       C  0.98637038  0.71203502  0.84218566    -0.09800
C1151       C  0.49746795  0.76284366  0.84372585    -0.03700
C1152       C  0.53153916  0.78355922  0.81854681    -0.09900
H1153       H  0.58695122  0.82034552  0.67560167     0.08400
H1154       H  0.58833857  0.82443114  0.75905033     0.08400
H1155       H  0.95926447  0.64157931  0.70359424     0.08500
H1156       H  0.95428230  0.64586557  0.78747397     0.08500
H1157       H  0.50483217  0.73275110  0.56654091     0.05000
H1158       H  0.49633280  0.76786425  0.88072835     0.05000
C1159       C  0.94498898  0.66274474  0.95934677     0.87500
C1160       C  0.90001436  0.68591751  0.95989985    -0.52800
C1161       C  0.87470491  0.67382512  0.49687148     0.10400
C1162       C  0.89458385  0.63410568  0.52641631     0.21400
C1163       C  0.96433711  0.66979801  0.00870602    -0.53500
C1164       C  0.93892668  0.65274312  0.54488365     0.10500
C1165       C  0.93363743  0.61469926  0.95669367    -0.53000
C1166       C  0.91049901  0.59764089  0.49138638     0.11100
H1167       H  0.89185126  0.71217181  0.93531280     0.15600
H1168       H  0.87139751  0.62178484  0.55365471     0.01300
H1169       H  0.99889117  0.68355157  0.51729471     0.15900
H1170       H  0.95070170  0.59475562  0.93093367     0.15700
O1171       O  0.94350057  0.53791431  0.53983787    -0.71900
O1172       O  0.54616442  0.93997258  0.53019010    -0.72900
O1173       O  0.54797216  0.55610093  0.54446401    -0.61500
O1174       O  0.95105315  0.96697415  0.54684785    -0.70000
O1175       O  0.95122967  0.95954929  0.96975459    -0.69500
O1176       O  0.55321514  0.55595968  0.97158455    -0.60800
O1177       O  0.53616205  0.95082108  0.96377719    -0.73300
O1178       O  0.93436107  0.52886266  0.96858216    -0.72000
Cu1179     Cu  0.49461090  0.98703740  0.53601099     1.04600
Cu1180     Cu  0.48412099  0.98890364  0.96472600     1.04300
C1181       C  0.92603243  0.55135159  0.00431418     0.94300
C1182       C  0.55557579  0.93075943  0.99718088     0.93400
C1183       C  0.56952221  0.56600315  0.01149125     0.85500
C1184       C  0.93509215  0.94859407  0.00957628     0.91800
C1185       C  0.97563855  0.67735372  0.92025392    -0.15400
C1186       C  0.96297361  0.68045900  0.87479369    -0.30600
H1187       H  0.00879087  0.68861111  0.93065303     0.13600
H1188       H  0.93119239  0.66622416  0.86396224     0.14200
C1189       C  0.94420307  0.66648550  0.59387351    -0.15400
C1190       C  0.98382146  0.66437712  0.61621012    -0.30600
H1191       H  0.91708771  0.68610820  0.60836514     0.13600
H1192       H  0.01090549  0.64555951  0.60051039     0.14200
C1193       C  0.56675324  0.80601447  0.84612442    -0.15400
C1194       C  0.55321416  0.83170536  0.88106163    -0.30600
H1195       H  0.60099026  0.79388830  0.84373957     0.13600
H1196       H  0.51891114  0.84449018  0.87986254     0.14200
C1197       C  0.53892242  0.81149266  0.54930941    -0.15400
C1198       C  0.55763749  0.79854713  0.59011563    -0.30600
H1199       H  0.50331551  0.80529122  0.54359356     0.13600
H1200       H  0.59297829  0.80471585  0.59695166     0.14200
C1201       C  0.80296070  0.94586768  0.88885987    -0.15400
C1202       C  0.82490123  0.96448626  0.92443698    -0.30600
H1203       H  0.79850090  0.91024559  0.88786584     0.13600
H1204       H  0.82684982  0.00040992  0.92508221     0.14200
C1205       C  0.79481848  0.96522219  0.58934357    -0.15400
C1206       C  0.78722794  0.95005755  0.63280469    -0.30600
H1207       H  0.78490508  0.99874759  0.58013220     0.13600
H1208       H  0.79980497  0.91774020  0.64316635     0.14200
C1209       C  0.66490649  0.54290873  0.92087587    -0.15400
C1210       C  0.68958432  0.55742868  0.88503935    -0.30600
H1211       H  0.65578649  0.50806950  0.92183763     0.13600
H1212       H  0.70090512  0.59156369  0.88389761     0.14200
C1213       C  0.69860387  0.53622102  0.58650031    -0.15400
C1214       C  0.70797284  0.54950331  0.63008376    -0.30600
H1215       H  0.70261869  0.50161612  0.57779007     0.13600
H1216       H  0.70111405  0.58344653  0.63967565     0.14200
loop_ 
_geom_bond_atom_site_label_1 
_geom_bond_atom_site_label_2 
_geom_bond_distance 
_geom_bond_site_symmetry_2 
_ccdc_geom_bond_type 
O1           Cu9   2.113       .  S
O1          C163   1.285       .  A
O2           Cu9   2.107       .  S
O2           C12   1.288       .  A
O3           Cu9   1.955       .  S
O3           C13   1.274       .  A
O4           Cu9   1.972       .  S
O4          C166   1.274       .  A
O5          Cu10   2.096       .  S
O5           C14   1.286   1_554  A
O6          Cu10   2.098       .  S
O6          C165   1.284   1_554  A
O7          Cu10   1.951       .  S
O7          C164   1.271   1_554  A
O8          Cu10   1.959       .  S
O8           C11   1.275   1_554  A
Cu9        Cu162   2.352       .  S
Cu10       Cu161   2.350   1_554  S
C11         O153   1.285       .  A
C11         C208   1.506   1_556  S
C12         O159   1.273       .  A
C12          C22   1.498       .  S
C13         O158   1.285       .  A
C13         C215   1.507       .  S
C14         O156   1.275       .  A
C14          C97   1.500       .  S
C15          C16   1.517       .  S
C15          C21   1.496       .  S
C15          C19   1.541       .  S
C15         C149   1.511       .  S
C16          H23   1.087       .  S
C16         C169   1.378       .  D
C17         C119   1.511       .  S
C17          C18   1.574       .  S
C17         C168   1.374       .  D
C18          C22   1.583       .  S
C18          C20   1.530       .  S
C18          H24   1.110       .  S
C19         H177   1.087       .  S
C19         C172   1.370   1_554  D
C20         C171   1.365       .  D
C20         C145   1.472       .  S
C21          H26   1.088       .  S
C21         C174   1.363       .  D
C22         C173   1.368       .  D
H25         C171   1.087       .  S
C27         C142   1.481       .  S
C27          C28   1.391       .  A
C27          C32   1.410       .  A
C28         C333   1.389       .  A
C28          H47   1.086       .  S
C29         C150   1.500       .  S
C29          C30   1.421       .  A
C29         C332   1.392       .  A
C30          C37   1.404       .  A
C30         C335   1.430       .  A
C31          C32   1.421       .  A
C31          C36   1.419       .  A
C31         C334   1.430       .  A
C32          C33   1.406       .  A
C33          C34   1.397       .  A
C33          H43   1.082       .  S
C34          C35   1.406       .  A
C34          H44   1.083       .  S
C35          C36   1.430       .  A
C35          C42   1.421       .  A
C36         C343   1.419       .  A
C37          C38   1.396       .  A
C37          H45   1.081       .  S
C38          C39   1.406       .  A
C38          H46   1.083       .  S
C39          C40   1.410       .  A
C39         C340   1.421       .  A
C40         C146   1.486       .  S
C40         C345   1.398       .  A
C41          C42   1.401       .  A
C41         C344   1.400       .  A
C41          H48   1.084       .  S
C42         C137   1.506       .  S
C49          C50   1.509       .  S
C49          C55   1.488       .  S
C49          C53   1.536       .  S
C49         C141   1.504       .  S
C50          H57   1.081       .  S
C50         C203   1.378       .  D
C51         C120   1.533       .  S
C51          C52   1.591       .  S
C51         C202   1.370       .  D
C52          C56   1.607       .  S
C52          C54   1.538       .  S
C52          H58   1.110       .  S
C53         H211   1.087       .  S
C53         C206   1.365   1_554  D
C54         C205   1.365       .  D
C54         C138   1.489       .  S
C55          H60   1.088       .  S
C55         C208   1.366       .  D
C56         C163   1.517       .  S
C56         C207   1.374       .  D
H59         C205   1.087       .  S
C61          C62   1.496       .  S
C61          C67   1.505       .  S
C61          C65   1.549       .  S
C61         C130   1.508       .  S
C62          H69   1.083       .  S
C62         C215   1.375       .  D
C63         C165   1.505       .  S
C63          C64   1.597   1_556  S
C63         C214   1.376       .  D
C64          C68   1.583   1_554  S
C64          C66   1.525       .  S
C64          H70   1.110       .  S
C65         H223   1.087       .  S
C65         C218   1.367       .  D
C66         C217   1.366   1_554  D
C66         C133   1.478       .  S
C67          H72   1.089       .  S
C67         C220   1.369       .  D
C68         C270   1.531       .  S
C68         C219   1.370       .  D
H71         C217   1.087       .  S
C73         C134   1.499       .  S
C73          C74   1.395       .  A
C73          C78   1.418       .  A
C74         C683   1.394   1_455  A
C74          H93   1.085       .  S
C75         C126   1.486       .  S
C75          C76   1.421       .  A
C75         C682   1.394       .  A
C76          C83   1.407       .  A
C76         C685   1.424       .  A
C77          C78   1.429       .  A
C77          C82   1.420       .  A
C77         C684   1.421   1_455  A
C78          C79   1.405       .  A
C79          C80   1.395       .  A
C79          H89   1.082       .  S
C80          C81   1.405       .  A
C80          H90   1.083       .  S
C81          C82   1.421       .  A
C81          C88   1.408       .  A
C82         C693   1.429   1_455  A
C83          C84   1.404       .  A
C83          H91   1.083       .  S
C84          C85   1.408       .  A
C84          H92   1.082       .  S
C85          C86   1.425       .  A
C85         C690   1.429       .  A
C86         C122   1.501       .  S
C86         C695   1.391       .  A
C87          C88   1.394   1_655  A
C87         C694   1.393       .  A
C87          H94   1.082       .  S
C88         C129   1.484       .  S
C95          C96   1.508       .  S
C95         C101   1.495       .  S
C95          C99   1.551       .  S
C95         C121   1.510       .  S
C96         H103   1.087       .  S
C96         C249   1.366       .  D
C97          C98   1.577   1_556  S
C97         C248   1.368       .  D
C98         C102   1.571   1_554  S
C98         C100   1.533       .  S
C98         H104   1.110       .  S
C99         H257   1.086       .  S
C99         C252   1.375       .  D
C100        C251   1.375       .  D
C100        C125   1.484       .  S
C101        H106   1.089       .  S
C101        C254   1.369       .  D
C102        C269   1.501   1_556  S
C102        C253   1.374       .  D
H105        C251   1.086       .  S
O107      Cu1027   2.116   1_545  S
O107        C269   1.290       .  A
O108       Cu115   2.135   1_455  S
O108        C270   1.289   1_554  A
O109       Cu419   1.959       .  S
O109        C271   1.272       .  A
O110       Cu723   1.933       .  S
O110        C272   1.271       .  A
O111       Cu724   2.136       .  S
O111        C120   1.287       .  A
O112       Cu420   2.106   1_455  S
O112        C119   1.288       .  A
O113       Cu116   1.939   1_455  S
O113        C118   1.274       .  A
O114      Cu1028   1.962   1_545  S
O114        C117   1.272       .  A
Cu115      O1019   2.122       .  S
Cu115       O413   1.917   1_655  S
Cu115       O718   1.958       .  S
Cu115      Cu268   2.335   1_554  S
Cu116       O719   2.104       .  S
Cu116       O416   2.127   1_655  S
Cu116      O1026   1.949       .  S
Cu116      Cu267   2.334       .  S
C117        O259   1.287       .  A
C117        C254   1.504       .  S
C118        O260   1.287       .  A
C118        C220   1.529       .  S
C119        O261   1.272       .  A
C120        O262   1.274       .  A
C121        H123   1.086       .  S
C121        C122   1.364       .  D
C122        H124   1.085       .  S
C125        H127   1.087       .  S
C125        C126   1.346       .  D
C126        H128   1.086       .  S
C129        H131   1.083       .  S
C129        C130   1.343       .  D
C130        H132   1.089       .  S
C133        H135   1.087       .  S
C133        C134   1.353       .  D
C134        H136   1.085       .  S
C137        H139   1.085       .  S
C137        C138   1.352       .  D
C138        H140   1.087       .  S
C141        H143   1.089       .  S
C141        C142   1.353       .  D
C142        H144   1.081       .  S
C145        H147   1.088       .  S
C145        C146   1.343       .  D
C146        H148   1.086       .  S
C149        H151   1.086       .  S
C149        C150   1.359       .  D
C150        H152   1.085       .  S
O153       Cu161   2.106       .  S
O154       Cu161   2.105       .  S
O154        C164   1.288       .  A
O155       Cu161   1.960       .  S
O155        C165   1.275       .  A
O156       Cu161   1.972       .  S
O157       Cu162   2.102       .  S
O157        C166   1.287       .  A
O158       Cu162   2.106       .  S
O159       Cu162   1.966       .  S
O160       Cu162   1.972       .  S
O160        C163   1.277       .  A
C164        C174   1.493   1_556  S
C166        C249   1.501       .  S
C167        C168   1.508       .  S
C167        C173   1.503       .  S
C167        C171   1.541       .  S
C167        C301   1.507       .  S
C168        H175   1.088       .  S
C169        C271   1.513       .  S
C169        C170   1.570   1_554  S
C170        C174   1.580   1_556  S
C170        C172   1.529       .  S
C170        H176   1.110       .  S
C172        C297   1.469       .  S
C173        H178   1.088       .  S
C179        C294   1.478       .  S
C179        C180   1.391       .  A
C179        C184   1.403       .  A
C180        C485   1.395       .  A
C180        H199   1.082       .  S
C181        C302   1.503       .  S
C181        C484   1.394   1_545  A
C181        C182   1.422       .  A
C182        C487   1.430   1_545  A
C182        C189   1.406       .  A
C183        C486   1.429       .  A
C183        C184   1.420       .  A
C183        C188   1.417       .  A
C184        C185   1.404       .  A
C185        C186   1.392       .  A
C185        H195   1.083       .  S
C186        C187   1.404       .  A
C186        H196   1.082       .  S
C187        C188   1.427       .  A
C187        C194   1.412       .  A
C188        C495   1.420       .  A
C189        C190   1.396       .  A
C189        H197   1.081       .  S
C190        C191   1.406       .  A
C190        H198   1.083       .  S
C191        C492   1.420   1_545  A
C191        C192   1.410       .  A
C192        C298   1.484       .  S
C192        C497   1.397   1_545  A
C193        C496   1.397       .  A
C193        C194   1.397       .  A
C193        H200   1.085       .  S
C194        C289   1.493       .  S
C201        C202   1.500       .  S
C201        C207   1.493       .  S
C201        C205   1.542       .  S
C201        C293   1.504       .  S
C202        H209   1.089       .  S
C203        C272   1.521       .  S
C203        C204   1.582   1_554  S
C204        C208   1.589   1_556  S
C204        C206   1.536       .  S
C204        H210   1.110       .  S
C206        C290   1.474       .  S
C207        H212   1.084       .  S
C213        C214   1.496       .  S
C213        C219   1.505       .  S
C213        C217   1.547       .  S
C213        C282   1.506       .  S
C214        H221   1.084       .  S
C215        C216   1.596       .  S
C216        C220   1.586       .  S
C216        C218   1.528       .  S
C216        H222   1.109       .  S
C218        C285   1.484       .  S
C219        H224   1.089       .  S
C225        C286   1.502       .  S
C225        C226   1.395       .  A
C225        C230   1.420       .  A
C226        C835   1.395   1_455  A
C226        H245   1.085       .  S
C227        C278   1.483       .  S
C227        C834   1.396       .  A
C227        C228   1.420       .  A
C228        C837   1.422       .  A
C228        C235   1.409       .  A
C229        C836   1.419   1_455  A
C229        C230   1.431       .  A
C229        C234   1.420   1_455  A
C230        C231   1.404       .  A
C231        C232   1.396       .  A
C231        H241   1.081       .  S
C232        C233   1.406       .  A
C232        H242   1.083       .  S
C233        C234   1.419   1_455  A
C233        C240   1.407       .  A
C234        C845   1.431       .  A
C235        C236   1.405       .  A
C235        H243   1.083       .  S
C236        C237   1.407       .  A
C236        H244   1.082       .  S
C237        C842   1.432       .  A
C237        C238   1.429       .  A
C238        C274   1.508       .  S
C238        C847   1.391       .  A
C239        C846   1.395       .  A
C239        C240   1.395   1_655  A
C239        H246   1.082       .  S
C240        C281   1.483       .  S
C247        C248   1.508       .  S
C247        C253   1.495       .  S
C247        C251   1.552   1_556  S
C247        C273   1.518       .  S
C248        H255   1.087       .  S
C249        C250   1.579       .  S
C250        C254   1.579       .  S
C250        C252   1.534       .  S
C250        H256   1.110       .  S
C252        C277   1.487       .  S
C253        H258   1.088       .  S
O259      Cu1179   2.103   1_545  S
O260       Cu267   2.125   1_455  S
O261       Cu571   1.950   1_455  S
O262       Cu875   1.922       .  S
O263       Cu876   2.129       .  S
O263        C272   1.289   1_556  A
O264       Cu572   2.107       .  S
O264        C271   1.289   1_556  A
O265       Cu268   1.919   1_455  S
O265        C270   1.271       .  A
O266      Cu1180   1.939   1_545  S
O266        C269   1.266   1_556  A
Cu267      O1171   2.109       .  S
Cu267       O565   1.907   1_655  S
Cu267       O870   1.930       .  S
Cu268       O871   2.103       .  S
Cu268       O568   2.133   1_655  S
Cu268      O1178   1.938       .  S
C273        H275   1.086       .  S
C273        C274   1.368       .  D
C274        H276   1.085       .  S
C277        H279   1.087       .  S
C277        C278   1.343       .  D
C278        H280   1.087       .  S
C281        H283   1.083       .  S
C281        C282   1.341       .  D
C282        H284   1.089       .  S
C285        H287   1.087       .  S
C285        C286   1.355       .  D
C286        H288   1.085       .  S
C289        H291   1.086       .  S
C289        C290   1.345       .  D
C290        H292   1.088       .  S
C293        H295   1.090       .  S
C293        C294   1.340       .  D
C294        H296   1.083       .  S
C297        H299   1.089       .  S
C297        C298   1.342       .  D
C298        H300   1.087       .  S
C301        H303   1.084       .  S
C301        C302   1.357       .  D
C302        H304   1.084       .  S
O305       Cu313   2.109       .  S
O305        C467   1.286       .  A
O306       Cu313   2.107       .  S
O306        C316   1.287       .  A
O307       Cu313   1.971       .  S
O307        C317   1.276       .  A
O308       Cu313   1.958       .  S
O308        C470   1.272       .  A
O309       Cu314   2.106       .  S
O309        C318   1.288   1_554  A
O310       Cu314   2.110       .  S
O310        C469   1.286   1_554  A
O311       Cu314   1.946       .  S
O311        C468   1.272   1_554  A
O312       Cu314   1.938       .  S
O312        C315   1.271   1_554  A
Cu313      Cu466   2.353       .  S
Cu314      Cu465   2.349   1_554  S
C315        O457   1.287       .  A
C315        C512   1.497   1_556  S
C316        O463   1.272       .  A
C316        C326   1.501       .  S
C317        O462   1.286       .  A
C317        C519   1.510       .  S
C318        O460   1.275       .  A
C318        C401   1.513       .  S
C319        C320   1.511       .  S
C319        C325   1.492       .  S
C319        C323   1.538       .  S
C319        C453   1.508       .  S
C320        H327   1.087       .  S
C320        C473   1.381       .  D
C321        C423   1.514       .  S
C321        C322   1.570       .  S
C321        C472   1.378       .  D
C322        C326   1.586       .  S
C322        C324   1.533       .  S
C322        H328   1.110       .  S
C323        H481   1.087       .  S
C323        C476   1.367   1_554  D
C324        C475   1.360       .  D
C324        C449   1.469       .  S
C325        H330   1.088       .  S
C325        C478   1.366       .  D
C326        C477   1.373       .  D
H329        C475   1.088       .  S
C331        C446   1.480       .  S
C331        C332   1.391   1_565  A
C331        C336   1.410       .  A
C332        H351   1.085       .  S
C333        C454   1.494       .  S
C333        C334   1.416       .  A
C334        C341   1.402       .  A
C335        C336   1.421   1_545  A
C335        C340   1.422       .  A
C336        C337   1.405       .  A
C337        C338   1.397       .  A
C337        H347   1.083       .  S
C338        C339   1.406       .  A
C338        H348   1.082       .  S
C339        C340   1.430   1_565  A
C339        C346   1.422       .  A
C341        C342   1.394       .  A
C341        H349   1.082       .  S
C342        C343   1.407       .  A
C342        H350   1.083       .  S
C343        C344   1.406       .  A
C344        C450   1.483       .  S
C345        C346   1.398   1_545  A
C345        H352   1.083       .  S
C346        C441   1.505       .  S
C353        C354   1.516       .  S
C353        C359   1.490       .  S
C353        C357   1.543       .  S
C353        C445   1.509       .  S
C354        H361   1.083       .  S
C354        C507   1.375       .  D
C355        C424   1.524       .  S
C355        C356   1.583       .  S
C355        C506   1.368       .  D
C356        C360   1.595       .  S
C356        C358   1.533       .  S
C356        H362   1.109       .  S
C357        H515   1.087       .  S
C357        C510   1.368   1_554  D
C358        C509   1.368       .  D
C358        C442   1.488       .  S
C359        H364   1.088       .  S
C359        C512   1.368       .  D
C360        C467   1.503       .  S
C360        C511   1.375       .  D
H363        C509   1.087       .  S
C365        C366   1.500       .  S
C365        C371   1.497       .  S
C365        C369   1.539       .  S
C365        C434   1.502       .  S
C366        H373   1.087       .  S
C366        C519   1.367       .  D
C367        C469   1.514       .  S
C367        C368   1.599   1_556  S
C367        C518   1.368       .  D
C368        C372   1.586   1_554  S
C368        C370   1.540       .  S
C368        H374   1.109       .  S
C369        H527   1.087   1_455  S
C369        C522   1.366       .  D
C370        C521   1.364   1_554  D
C370        C437   1.479       .  S
C371        H376   1.088       .  S
C371        C524   1.374       .  D
C372        C574   1.525   1_556  S
C372        C523   1.372       .  D
H375        C521   1.087   1_655  S
C377        C438   1.488       .  S
C377        C378   1.395       .  A
C377        C382   1.410       .  A
C378        C987   1.395   1_455  A
C378        H397   1.086       .  S
C379        C430   1.480       .  S
C379        C986   1.395       .  A
C379        C380   1.407       .  A
C380        C989   1.421       .  A
C380        C387   1.405       .  A
C381        C988   1.423   1_455  A
C381        C382   1.426       .  A
C381        C386   1.422       .  A
C382        C383   1.403       .  A
C383        C384   1.389       .  A
C383        H393   1.083       .  S
C384        C385   1.403       .  A
C384        H394   1.083       .  S
C385        C386   1.423       .  A
C385        C392   1.404       .  A
C386        C997   1.431   1_455  A
C387        C388   1.394       .  A
C387        H395   1.083       .  S
C388        C389   1.405       .  A
C388        H396   1.082       .  S
C389        C994   1.428       .  A
C389        C390   1.416       .  A
C390        C426   1.497       .  S
C390        C999   1.392       .  A
C391        C998   1.390   1_455  A
C391        C392   1.389       .  A
C391        H398   1.077       .  S
C392        C433   1.484       .  S
C399        C400   1.516       .  S
C399        C405   1.491       .  S
C399        C403   1.537       .  S
C399        C425   1.503       .  S
C400        H407   1.085       .  S
C400        C553   1.381       .  D
C401        C402   1.579   1_556  S
C401        C552   1.381       .  D
C402        C406   1.577   1_554  S
C402        C404   1.528       .  S
C402        H408   1.110       .  S
C403        H561   1.087       .  S
C403        C556   1.367       .  D
C404        C555   1.368   1_554  D
C404        C429   1.466       .  S
C405        H410   1.089       .  S
C405        C558   1.360       .  D
C406        C573   1.507   1_556  S
C406        C557   1.364       .  D
H409        C555   1.087       .  S
O411       Cu723   2.131       .  S
O411        C573   1.291       .  A
O412       Cu419   2.132   1_565  S
O412        C574   1.289       .  A
O413        C575   1.268       .  A
O414      Cu1027   1.943       .  S
O414        C576   1.273       .  A
O415      Cu1028   2.111       .  S
O415        C424   1.285       .  A
O416        C423   1.291       .  A
O417       Cu420   1.927   1_465  S
O417        C422   1.269       .  A
O418       Cu724   1.952       .  S
O418        C421   1.272       .  A
Cu419       O715   2.130   1_455  S
Cu419      O1022   1.951   1_445  S
Cu419      Cu572   2.337   1_554  S
Cu420      O1023   2.120   1_545  S
Cu420       O722   1.940       .  S
Cu420      Cu571   2.339       .  S
C421        O563   1.286       .  A
C421        C558   1.501       .  S
C422        O564   1.290       .  A
C422        C524   1.524       .  S
C423        O565   1.268       .  A
C424        O566   1.275       .  A
C425        H427   1.088       .  S
C425        C426   1.351       .  D
C426        H428   1.083       .  S
C429        H431   1.089       .  S
C429        C430   1.342       .  D
C430        H432   1.087       .  S
C433        H435   1.086       .  S
C433        C434   1.348       .  D
C434        H436   1.088   1_455  S
C437        H439   1.089   1_455  S
C437        C438   1.343       .  D
C438        H440   1.085       .  S
C441        H443   1.085       .  S
C441        C442   1.354       .  D
C442        H444   1.087       .  S
C445        H447   1.089       .  S
C445        C446   1.353       .  D
C446        H448   1.081       .  S
C449        H451   1.089       .  S
C449        C450   1.337       .  D
C450        H452   1.087       .  S
C453        H455   1.087       .  S
C453        C454   1.357       .  D
C454        H456   1.086       .  S
O457       Cu465   2.107       .  S
O458       Cu465   2.105       .  S
O458        C468   1.286       .  A
O459       Cu465   1.980       .  S
O459        C469   1.278       .  A
O460       Cu465   1.975       .  S
O461       Cu466   2.103       .  S
O461        C470   1.288       .  A
O462       Cu466   2.110       .  S
O463       Cu466   1.954       .  S
O464       Cu466   1.947       .  S
O464        C467   1.273       .  A
C468        C478   1.499   1_556  S
C470        C553   1.505       .  S
C471        C472   1.510       .  S
C471        C477   1.500       .  S
C471        C475   1.538       .  S
C471        C605   1.506       .  S
C472        H479   1.088       .  S
C473        C575   1.516       .  S
C473        C474   1.572   1_554  S
C474        C478   1.584   1_556  S
C474        C476   1.533       .  S
C474        H480   1.110       .  S
C476        C601   1.468       .  S
C477        H482   1.087       .  S
C483        C598   1.480       .  S
C483        C484   1.391       .  A
C483        C488   1.404       .  A
C484        H503   1.080       .  S
C485        C606   1.499       .  S
C485        C486   1.418       .  A
C486        C493   1.404       .  A
C487        C488   1.420       .  A
C487        C492   1.419       .  A
C488        C489   1.404       .  A
C489        C490   1.393       .  A
C489        H499   1.083       .  S
C490        C491   1.404       .  A
C490        H500   1.082       .  S
C491        C492   1.429       .  A
C491        C498   1.415       .  A
C493        C494   1.395       .  A
C493        H501   1.082       .  S
C494        C495   1.406       .  A
C494        H502   1.083       .  S
C495        C496   1.408       .  A
C496        C602   1.482       .  S
C497        C498   1.394       .  A
C497        H504   1.083       .  S
C498        C593   1.497       .  S
C505        C506   1.508       .  S
C505        C511   1.497       .  S
C505        C509   1.550       .  S
C505        C597   1.508       .  S
C506        H513   1.089       .  S
C507        C576   1.518       .  S
C507        C508   1.577   1_554  S
C508        C512   1.583   1_556  S
C508        C510   1.531       .  S
C508        H514   1.110       .  S
C510        C594   1.476       .  S
C511        H516   1.084       .  S
C517        C518   1.502       .  S
C517        C523   1.496       .  S
C517        C521   1.538       .  S
C517        C586   1.500       .  S
C518        H525   1.087       .  S
C519        C520   1.596       .  S
C520        C524   1.584       .  S
C520        C522   1.539       .  S
C520        H526   1.109       .  S
C522        C589   1.479       .  S
C523        H528   1.088       .  S
C529        C590   1.487       .  S
C529        C530   1.395       .  A
C529        C534   1.411       .  A
C530       C1139   1.394   1_455  A
C530        H549   1.086       .  S
C531        C582   1.479       .  S
C531       C1138   1.395       .  A
C531        C532   1.407       .  A
C532       C1141   1.420       .  A
C532        C539   1.406       .  A
C533       C1140   1.423   1_455  A
C533        C534   1.427       .  A
C533        C538   1.423       .  A
C534        C535   1.403       .  A
C535        C536   1.390       .  A
C535        H545   1.083       .  S
C536        C537   1.404       .  A
C536        H546   1.083       .  S
C537        C538   1.423       .  A
C537        C544   1.404       .  A
C538       C1149   1.432   1_455  A
C539        C540   1.395       .  A
C539        H547   1.083       .  S
C540        C541   1.404       .  A
C540        H548   1.082       .  S
C541       C1146   1.431       .  A
C541        C542   1.419       .  A
C542        C578   1.502       .  S
C542       C1151   1.394       .  A
C543       C1150   1.390   1_455  A
C543        C544   1.390       .  A
C543        H550   1.076       .  S
C544        C585   1.484       .  S
C551        C552   1.519       .  S
C551        C557   1.496       .  S
C551        C555   1.537       .  S
C551        C577   1.513       .  S
C552        H559   1.084       .  S
C553        C554   1.574       .  S
C554        C558   1.576       .  S
C554        C556   1.528       .  S
C554        H560   1.110       .  S
C556        C581   1.464       .  S
C557        H562   1.089       .  S
O563       Cu875   2.105       .  S
O564       Cu571   2.134   1_465  S
O566      Cu1179   1.923       .  S
O567      Cu1180   2.105       .  S
O567        C576   1.286   1_556  A
O568        C575   1.292   1_556  A
O569       Cu572   1.933   1_565  S
O569        C574   1.270   1_556  A
O570       Cu876   1.936       .  S
O570        C573   1.268   1_556  A
Cu571       O867   2.126       .  S
Cu571      O1174   1.946   1_545  S
Cu572      O1175   2.126   1_445  S
Cu572       O874   1.937   1_455  S
C577        H579   1.087       .  S
C577        C578   1.354       .  D
C578        H580   1.083       .  S
C581        H583   1.089       .  S
C581        C582   1.341       .  D
C582        H584   1.086       .  S
C585        H587   1.086       .  S
C585        C586   1.345       .  D
C586        H588   1.088   1_455  S
C589        H591   1.088   1_455  S
C589        C590   1.344       .  D
C590        H592   1.085       .  S
C593        H595   1.086       .  S
C593        C594   1.350       .  D
C594        H596   1.087       .  S
C597        H599   1.089       .  S
C597        C598   1.341       .  D
C598        H600   1.083       .  S
C601        H603   1.089       .  S
C601        C602   1.341       .  D
C602        H604   1.087       .  S
C605        H607   1.087       .  S
C605        C606   1.351       .  D
C606        H608   1.085       .  S
O609       Cu617   2.121       .  S
O609        C771   1.288       .  A
O610       Cu617   2.118       .  S
O610        C620   1.287       .  A
O611       Cu617   1.976       .  S
O611        C621   1.277       .  A
O612       Cu617   1.970       .  S
O612        C774   1.275       .  A
O613       Cu618   2.097       .  S
O613        C622   1.287   1_554  A
O614       Cu618   2.108       .  S
O614        C773   1.286   1_554  A
O615       Cu618   1.938       .  S
O615        C772   1.271   1_554  A
O616       Cu618   1.934       .  S
O616        C619   1.270   1_554  A
Cu617      Cu770   2.349       .  S
Cu618      Cu769   2.349   1_554  S
C619        O761   1.288       .  A
C619        C816   1.501   1_556  S
C620        O767   1.271       .  A
C620        C630   1.507       .  S
C621        O766   1.285       .  A
C621        C823   1.510       .  S
C622        O764   1.274       .  A
C622        C705   1.507       .  S
C623        C624   1.508       .  S
C623        C629   1.492       .  S
C623        C627   1.541       .  S
C623        C757   1.503       .  S
C624        H631   1.088       .  S
C624        C777   1.378       .  D
C625        C727   1.531       .  S
C625        C626   1.584       .  S
C625        C776   1.370       .  D
C626        C630   1.599       .  S
C626        C628   1.531       .  S
C626        H632   1.109       .  S
C627        H785   1.087       .  S
C627        C780   1.364   1_554  D
C628        C779   1.366       .  D
C628        C753   1.484       .  S
C629        H634   1.088       .  S
C629        C782   1.369       .  D
C630        C781   1.379       .  D
H633        C779   1.087       .  S
C635        C750   1.480       .  S
C635        C636   1.389       .  A
C635        C640   1.409       .  A
C636        C941   1.390       .  A
C636        H655   1.085       .  S
C637        C758   1.484       .  S
C637        C940   1.393       .  A
C637        C638   1.411       .  A
C638        C943   1.422       .  A
C638        C645   1.405       .  A
C639        C942   1.429       .  A
C639        C640   1.421       .  A
C639        C644   1.420       .  A
C640        C641   1.403       .  A
C641        C642   1.396       .  A
C641        H651   1.083       .  S
C642        C643   1.407       .  A
C642        H652   1.082       .  S
C643        C644   1.428       .  A
C643        C650   1.419       .  A
C644        C951   1.421       .  A
C645        C646   1.398       .  A
C645        H653   1.082       .  S
C646        C647   1.407       .  A
C646        H654   1.082       .  S
C647        C948   1.428       .  A
C647        C648   1.421       .  A
C648        C754   1.502       .  S
C648        C953   1.401   1_545  A
C649        C952   1.398       .  A
C649        C650   1.399       .  A
C649        H656   1.083       .  S
C650        C745   1.500       .  S
C657        C658   1.515       .  S
C657        C663   1.490       .  S
C657        C661   1.543       .  S
C657        C749   1.508       .  S
C658        H665   1.082       .  S
C658        C811   1.374       .  D
C659        C728   1.523       .  S
C659        C660   1.581       .  S
C659        C810   1.369       .  D
C660        C664   1.593       .  S
C660        C662   1.535       .  S
C660        H666   1.109       .  S
C661        H819   1.087       .  S
C661        C814   1.368   1_554  D
C662        C813   1.367       .  D
C662        C746   1.484       .  S
C663        H668   1.088       .  S
C663        C816   1.368       .  D
C664        C771   1.505       .  S
C664        C815   1.375       .  D
H667        C813   1.087       .  S
C669        C670   1.502       .  S
C669        C675   1.494       .  S
C669        C673   1.536       .  S
C669        C738   1.505       .  S
C670        H677   1.087       .  S
C670        C823   1.367       .  D
C671        C773   1.509       .  S
C671        C672   1.592   1_556  S
C671        C822   1.369       .  D
C672        C676   1.581   1_554  S
C672        C674   1.540       .  S
C672        H678   1.109       .  S
C673        H831   1.087       .  S
C673        C826   1.365       .  D
C674        C825   1.364   1_554  D
C674        C741   1.476       .  S
C675        H680   1.088       .  S
C675        C828   1.375       .  D
C676        C878   1.521   1_556  S
C676        C827   1.375       .  D
H679        C825   1.087       .  S
C681        C742   1.485       .  S
C681        C682   1.395       .  A
C681        C686   1.409       .  A
C682        H701   1.086       .  S
C683        C734   1.482       .  S
C683        C684   1.408       .  A
C684        C691   1.405       .  A
C685        C686   1.425       .  A
C685        C690   1.422       .  A
C686        C687   1.403       .  A
C687        C688   1.390       .  A
C687        H697   1.083       .  S
C688        C689   1.403       .  A
C688        H698   1.083       .  S
C689        C690   1.424       .  A
C689        C696   1.406       .  A
C691        C692   1.395       .  A
C691        H699   1.083       .  S
C692        C693   1.405       .  A
C692        H700   1.081       .  S
C693        C694   1.419       .  A
C694        C730   1.501       .  S
C695        C696   1.390       .  A
C695        H702   1.078       .  S
C696        C737   1.486       .  S
C703        C704   1.518       .  S
C703        C709   1.498       .  S
C703        C707   1.537       .  S
C703        C729   1.512       .  S
C704        H711   1.084       .  S
C704        C857   1.379       .  D
C705        C706   1.572   1_556  S
C705        C856   1.381       .  D
C706        C710   1.574   1_554  S
C706        C708   1.532       .  S
C706        H712   1.110       .  S
C707        H865   1.087       .  S
C707        C860   1.368       .  D
C708        C859   1.368   1_554  D
C708        C733   1.469       .  S
C709        H714   1.089       .  S
C709        C862   1.365       .  D
C710        C877   1.505   1_556  S
C710        C861   1.365       .  D
H713        C859   1.087       .  S
O715        C877   1.291       .  A
O716       Cu723   2.133       .  S
O716        C878   1.290       .  A
O717      Cu1027   1.906   1_545  S
O717        C879   1.269       .  A
O718        C880   1.275       .  A
O719        C728   1.284       .  A
O720      Cu1028   2.138   1_545  S
O720        C727   1.288       .  A
O721       Cu724   1.939       .  S
O721        C726   1.270       .  A
O722        C725   1.269       .  A
Cu723      O1021   1.955       .  S
Cu723      Cu876   2.332   1_554  S
Cu724      O1024   2.109       .  S
Cu724      Cu875   2.329       .  S
C725        O867   1.291       .  A
C725        C862   1.504       .  S
C726        O868   1.289       .  A
C726        C828   1.517       .  S
C727        O869   1.272       .  A
C728        O870   1.275       .  A
C729        H731   1.087       .  S
C729        C730   1.356       .  D
C730        H732   1.082       .  S
C733        H735   1.089       .  S
C733        C734   1.342       .  D
C734        H736   1.087       .  S
C737        H739   1.086       .  S
C737        C738   1.348       .  D
C738        H740   1.088       .  S
C741        H743   1.089       .  S
C741        C742   1.343       .  D
C742        H744   1.085       .  S
C745        H747   1.085       .  S
C745        C746   1.350       .  D
C746        H748   1.087       .  S
C749        H751   1.089       .  S
C749        C750   1.355       .  D
C750        H752   1.081       .  S
C753        H755   1.087   1_545  S
C753        C754   1.351       .  D
C754        H756   1.086       .  S
C757        H759   1.089       .  S
C757        C758   1.351       .  D
C758        H760   1.086       .  S
O761       Cu769   2.117       .  S
O762       Cu769   2.114       .  S
O762        C772   1.287       .  A
O763       Cu769   1.969       .  S
O763        C773   1.276       .  A
O764       Cu769   1.966       .  S
O765       Cu770   2.094       .  S
O765        C774   1.286       .  A
O766       Cu770   2.104       .  S
O767       Cu770   1.931       .  S
O768       Cu770   1.930       .  S
O768        C771   1.270       .  A
C772        C782   1.503   1_556  S
C774        C857   1.506       .  S
C775        C776   1.510       .  S
C775        C781   1.491       .  S
C775        C779   1.549       .  S
C775        C909   1.511       .  S
C776        H783   1.089       .  S
C777        C879   1.524       .  S
C777        C778   1.579   1_554  S
C778        C782   1.589   1_556  S
C778        C780   1.534       .  S
C778        H784   1.110       .  S
C780        C905   1.470       .  S
C781        H786   1.084       .  S
C787        C902   1.480       .  S
C787        C788   1.391       .  A
C787        C792   1.405       .  A
C788       C1093   1.394       .  A
C788        H807   1.080       .  S
C789        C910   1.484       .  S
C789       C1092   1.390       .  A
C789        C790   1.406       .  A
C790       C1095   1.423       .  A
C790        C797   1.403       .  A
C791       C1094   1.430       .  A
C791        C792   1.421       .  A
C791        C796   1.419       .  A
C792        C793   1.404       .  A
C793        C794   1.394       .  A
C793        H803   1.084       .  S
C794        C795   1.404       .  A
C794        H804   1.081       .  S
C795        C796   1.428       .  A
C795        C802   1.415       .  A
C796       C1103   1.421       .  A
C797        C798   1.392       .  A
C797        H805   1.083       .  S
C798        C799   1.405       .  A
C798        H806   1.082       .  S
C799       C1100   1.424       .  A
C799        C800   1.409       .  A
C800        C906   1.487       .  S
C800       C1105   1.396   1_545  A
C801       C1104   1.395       .  A
C801        C802   1.394       .  A
C801        H808   1.083       .  S
C802        C897   1.496       .  S
C809        C810   1.509       .  S
C809        C815   1.494       .  S
C809        C813   1.547       .  S
C809        C901   1.508       .  S
C810        H817   1.089       .  S
C811        C880   1.520       .  S
C811        C812   1.580   1_554  S
C812        C816   1.584   1_556  S
C812        C814   1.530       .  S
C812        H818   1.110       .  S
C814        C898   1.474       .  S
C815        H820   1.084       .  S
C821        C822   1.502       .  S
C821        C827   1.496       .  S
C821        C825   1.537       .  S
C821        C890   1.503       .  S
C822        H829   1.087       .  S
C823        C824   1.593       .  S
C824        C828   1.585       .  S
C824        C826   1.545       .  S
C824        H830   1.110       .  S
C826        C893   1.484       .  S
C827        H832   1.088       .  S
C833        C894   1.494       .  S
C833        C834   1.397       .  A
C833        C838   1.414       .  A
C834        H853   1.086       .  S
C835        C886   1.478       .  S
C835        C836   1.406       .  A
C836        C843   1.406       .  A
C837        C838   1.428       .  A
C837        C842   1.424       .  A
C838        C839   1.403       .  A
C839        C840   1.391       .  A
C839        H849   1.083       .  S
C840        C841   1.405       .  A
C840        H850   1.083       .  S
C841        C842   1.423       .  A
C841        C848   1.406       .  A
C843        C844   1.395       .  A
C843        H851   1.083       .  S
C844        C845   1.405       .  A
C844        H852   1.081       .  S
C845        C846   1.420       .  A
C846        C882   1.503       .  S
C847        C848   1.391       .  A
C847        H854   1.077       .  S
C848        C889   1.485       .  S
C855        C856   1.520       .  S
C855        C861   1.498       .  S
C855        C859   1.537       .  S
C855        C881   1.514       .  S
C856        H863   1.084       .  S
C857        C858   1.574       .  S
C858        C862   1.574       .  S
C858        C860   1.529       .  S
C858        H864   1.110       .  S
C860        C885   1.464       .  S
C861        H866   1.089       .  S
O868       Cu875   2.125       .  S
O869      Cu1179   1.896   1_545  S
O871        C880   1.285   1_556  A
O872      Cu1180   2.139   1_545  S
O872        C879   1.291   1_556  A
O873       Cu876   1.929       .  S
O873        C878   1.268   1_556  A
O874        C877   1.268   1_556  A
Cu875      O1173   1.947       .  S
Cu876      O1176   2.110       .  S
C881        H883   1.087       .  S
C881        C882   1.355       .  D
C882        H884   1.083       .  S
C885        H887   1.089       .  S
C885        C886   1.341       .  D
C886        H888   1.087       .  S
C889        H891   1.086       .  S
C889        C890   1.347       .  D
C890        H892   1.088       .  S
C893        H895   1.089       .  S
C893        C894   1.345       .  D
C894        H896   1.086       .  S
C897        H899   1.086       .  S
C897        C898   1.350       .  D
C898        H900   1.087       .  S
C901        H903   1.089       .  S
C901        C902   1.343       .  D
C902        H904   1.083       .  S
C905        H907   1.088   1_545  S
C905        C906   1.343       .  D
C906        H908   1.086       .  S
C909        H911   1.089       .  S
C909        C910   1.343       .  D
C910        H912   1.083       .  S
O913       Cu921   2.099       .  S
O913       C1075   1.286       .  A
O914       Cu921   2.099       .  S
O914        C924   1.287       .  A
O915       Cu921   1.953       .  S
O915        C925   1.274       .  A
O916       Cu921   1.967       .  S
O916       C1078   1.273       .  A
O917       Cu922   2.101       .  S
O917        C926   1.287   1_554  A
O918       Cu922   2.099       .  S
O918       C1077   1.285   1_554  A
O919       Cu922   1.964       .  S
O919       C1076   1.274   1_554  A
O920       Cu922   1.980       .  S
O920        C923   1.277       .  A
Cu921     Cu1074   2.356       .  S
Cu922     Cu1073   2.353   1_554  S
C923       O1065   1.286   1_554  A
C923       C1120   1.511       .  S
C924       O1071   1.274       .  A
C924        C934   1.496       .  S
C925       O1070   1.286       .  A
C925       C1127   1.505       .  S
C926       O1068   1.275       .  A
C926       C1009   1.502       .  S
C927        C928   1.514       .  S
C927        C933   1.496       .  S
C927        C931   1.540       .  S
C927       C1061   1.506       .  S
C928        H935   1.087       .  S
C928       C1081   1.376       .  D
C929       C1031   1.513       .  S
C929        C930   1.574       .  S
C929       C1080   1.375       .  D
C930        C934   1.584       .  S
C930        C932   1.530       .  S
C930        H936   1.110       .  S
C931       H1089   1.087   1_554  S
C931       C1084   1.370   1_554  D
C932       C1083   1.363       .  D
C932       C1057   1.472       .  S
C933        H938   1.088       .  S
C933       C1086   1.362       .  D
C934       C1085   1.369       .  D
H937       C1083   1.087       .  S
C939       C1054   1.491       .  S
C939        C940   1.389   1_565  A
C939        C944   1.416       .  A
C940        H959   1.086       .  S
C941       C1062   1.495       .  S
C941        C942   1.419       .  A
C942        C949   1.404       .  A
C943        C944   1.428   1_545  A
C943        C948   1.420       .  A
C944        C945   1.404       .  A
C945        C946   1.394       .  A
C945        H955   1.081       .  S
C946        C947   1.405       .  A
C946        H956   1.083       .  S
C947        C948   1.420   1_565  A
C947        C954   1.407       .  A
C949        C950   1.396       .  A
C949        H957   1.081       .  S
C950        C951   1.406       .  A
C950        H958   1.083       .  S
C951        C952   1.409       .  A
C952       C1058   1.485       .  S
C953        C954   1.396       .  A
C953        H960   1.083       .  S
C954       C1049   1.482       .  S
C961        C962   1.513       .  S
C961        C967   1.495       .  S
C961        C965   1.537       .  S
C961       C1053   1.514       .  S
C962        H969   1.082       .  S
C962       C1115   1.376       .  D
C963       C1032   1.514       .  S
C963        C964   1.577       .  S
C963       C1114   1.374       .  D
C964        C968   1.589       .  S
C964        C966   1.531       .  S
C964        H970   1.110       .  S
C965       H1123   1.087       .  S
C965       C1118   1.368   1_554  D
C966       C1117   1.363       .  D
C966       C1050   1.470       .  S
C967        H972   1.088       .  S
C967       C1120   1.366       .  D
C968       C1075   1.506       .  S
C968       C1119   1.369       .  D
H971       C1117   1.087       .  S
C973        C974   1.497       .  S
C973        C979   1.502       .  S
C973        C977   1.549       .  S
C973       C1042   1.505       .  S
C974        H981   1.084       .  S
C974       C1127   1.375       .  D
C975       C1077   1.505       .  S
C975        C976   1.593   1_556  S
C975       C1126   1.375       .  D
C976        C980   1.583   1_554  S
C976        C978   1.527       .  S
C976        H982   1.110       .  S
C977       H1135   1.087       .  S
C977       C1130   1.368       .  D
C978       C1129   1.365   1_554  D
C978       C1045   1.477       .  S
C979        H984   1.089       .  S
C979       C1132   1.366       .  D
C980       C1182   1.527       .  S
C980       C1131   1.371       .  D
H983       C1129   1.087       .  S
C985       C1046   1.497       .  S
C985        C986   1.395       .  A
C985        C990   1.416       .  A
C986       H1005   1.086       .  S
C987       C1038   1.483       .  S
C987        C988   1.420       .  A
C988        C995   1.408       .  A
C989        C990   1.428       .  A
C989        C994   1.418       .  A
C990        C991   1.405       .  A
C991        C992   1.395       .  A
C991       H1001   1.082       .  S
C992        C993   1.404       .  A
C992       H1002   1.083       .  S
C993        C994   1.422       .  A
C993       C1000   1.407       .  A
C995        C996   1.405       .  A
C995       H1003   1.083       .  S
C996        C997   1.408       .  A
C996       H1004   1.082       .  S
C997        C998   1.428       .  A
C998       C1034   1.504       .  S
C999       C1000   1.392       .  A
C999       H1006   1.082       .  S
C1000      C1041   1.484       .  S
C1007      C1008   1.506       .  S
C1007      C1013   1.495       .  S
C1007      C1011   1.554       .  S
C1007      C1033   1.512       .  S
C1008      H1015   1.087       .  S
C1008      C1161   1.367       .  D
C1009      C1010   1.580   1_556  S
C1009      C1160   1.367       .  D
C1010      C1014   1.575   1_554  S
C1010      C1012   1.531       .  S
C1010      H1016   1.110       .  S
C1011      H1169   1.086       .  S
C1011      C1164   1.377       .  D
C1012      C1163   1.376       .  D
C1012      C1037   1.483       .  S
C1013      H1018   1.089       .  S
C1013      C1166   1.370       .  D
C1014      C1181   1.506   1_556  S
C1014      C1165   1.373       .  D
H1017      C1163   1.086       .  S
O1019      C1181   1.290       .  A
O1020     Cu1027   2.127       .  S
O1020      C1182   1.288   1_554  A
O1021      C1183   1.272       .  A
O1022      C1184   1.272       .  A
O1023      C1032   1.289       .  A
O1024      C1031   1.288       .  A
O1025     Cu1028   1.963       .  S
O1025      C1030   1.279       .  A
O1026      C1029   1.270       .  A
Cu1027    Cu1180   2.330   1_554  S
Cu1028    Cu1179   2.329       .  S
C1029      O1171   1.288       .  A
C1029      C1166   1.507       .  S
C1030      O1172   1.282       .  A
C1030      C1132   1.522       .  S
C1031      O1173   1.273       .  A
C1032      O1174   1.271       .  A
C1033      H1035   1.085   1_655  S
C1033      C1034   1.366       .  D
C1034      H1036   1.085       .  S
C1037      H1039   1.087       .  S
C1037      C1038   1.344       .  D
C1038      H1040   1.087   1_655  S
C1041      H1043   1.083       .  S
C1041      C1042   1.343       .  D
C1042      H1044   1.089       .  S
C1045      H1047   1.087       .  S
C1045      C1046   1.352       .  D
C1046      H1048   1.085       .  S
C1049      H1051   1.086       .  S
C1049      C1050   1.340       .  D
C1050      H1052   1.088       .  S
C1053      H1055   1.088       .  S
C1053      C1054   1.357       .  D
C1054      H1056   1.081       .  S
C1057      H1059   1.088       .  S
C1057      C1058   1.342       .  D
C1058      H1060   1.086       .  S
C1061      H1063   1.086       .  S
C1061      C1062   1.358       .  D
C1062      H1064   1.085       .  S
O1065     Cu1073   2.106       .  S
O1066     Cu1073   2.102       .  S
O1066      C1076   1.287       .  A
O1067     Cu1073   1.959       .  S
O1067      C1077   1.275       .  A
O1068     Cu1073   1.974       .  S
O1069     Cu1074   2.101       .  S
O1069      C1078   1.287       .  A
O1070     Cu1074   2.106       .  S
O1071     Cu1074   1.971       .  S
O1072     Cu1074   1.986       .  S
O1072      C1075   1.277       .  A
C1076      C1086   1.496   1_556  S
C1078      C1161   1.499       .  S
C1079      C1080   1.510       .  S
C1079      C1085   1.504       .  S
C1079      C1083   1.541       .  S
C1079      C1213   1.505       .  S
C1080      H1087   1.088       .  S
C1081      C1183   1.513       .  S
C1081      C1082   1.572   1_554  S
C1082      C1086   1.583   1_556  S
C1082      C1084   1.530       .  S
C1082      H1088   1.110       .  S
C1084      C1209   1.470       .  S
C1085      H1090   1.087       .  S
C1091      C1206   1.498       .  S
C1091      C1092   1.397   1_565  A
C1091      C1096   1.420       .  A
C1092      H1111   1.082       .  S
C1093      C1214   1.502       .  S
C1093      C1094   1.421       .  A
C1094      C1101   1.406       .  A
C1095      C1096   1.426   1_545  A
C1095      C1100   1.419       .  A
C1096      C1097   1.407       .  A
C1097      C1098   1.398       .  A
C1097      H1107   1.081       .  S
C1098      C1099   1.405       .  A
C1098      H1108   1.082       .  S
C1099      C1100   1.424   1_565  A
C1099      C1106   1.414       .  A
C1101      C1102   1.395       .  A
C1101      H1109   1.081       .  S
C1102      C1103   1.405       .  A
C1102      H1110   1.083       .  S
C1103      C1104   1.409       .  A
C1104      C1210   1.485       .  S
C1105      C1106   1.398       .  A
C1105      H1112   1.085       .  S
C1106      C1201   1.490       .  S
C1113      C1114   1.505       .  S
C1113      C1119   1.501       .  S
C1113      C1117   1.538       .  S
C1113      C1205   1.503       .  S
C1114      H1121   1.088       .  S
C1115      C1184   1.521       .  S
C1115      C1116   1.580   1_554  S
C1116      C1120   1.591   1_556  S
C1116      C1118   1.536       .  S
C1116      H1122   1.110       .  S
C1118      C1202   1.476       .  S
C1119      H1124   1.087       .  S
C1125      C1126   1.497       .  S
C1125      C1131   1.502       .  S
C1125      C1129   1.545       .  S
C1125      C1194   1.507       .  S
C1126      H1133   1.084       .  S
C1127      C1128   1.592       .  S
C1128      C1132   1.586       .  S
C1128      C1130   1.529       .  S
C1128      H1134   1.110       .  S
C1130      C1197   1.485       .  S
C1131      H1136   1.089       .  S
C1137      C1198   1.504       .  S
C1137      C1138   1.394       .  A
C1137      C1142   1.421       .  A
C1138      H1157   1.085       .  S
C1139      C1190   1.482       .  S
C1139      C1140   1.421       .  A
C1140      C1147   1.408       .  A
C1141      C1142   1.431       .  A
C1141      C1146   1.420       .  A
C1142      C1143   1.404       .  A
C1143      C1144   1.396       .  A
C1143      H1153   1.082       .  S
C1144      C1145   1.406       .  A
C1144      H1154   1.083       .  S
C1145      C1146   1.420       .  A
C1145      C1152   1.408       .  A
C1147      C1148   1.405       .  A
C1147      H1155   1.083       .  S
C1148      C1149   1.407       .  A
C1148      H1156   1.082       .  S
C1149      C1150   1.429       .  A
C1150      C1186   1.508       .  S
C1151      C1152   1.395       .  A
C1151      H1158   1.083       .  S
C1152      C1193   1.483       .  S
C1159      C1160   1.507       .  S
C1159      C1165   1.495       .  S
C1159      C1163   1.554   1_556  S
C1159      C1185   1.517       .  S
C1160      H1167   1.087       .  S
C1161      C1162   1.580       .  S
C1162      C1166   1.577       .  S
C1162      C1164   1.531       .  S
C1162      H1168   1.110       .  S
C1164      C1189   1.488       .  S
C1165      H1170   1.088       .  S
O1172     Cu1179   2.096       .  S
O1175      C1184   1.289   1_556  A
O1176      C1183   1.289   1_556  A
O1177     Cu1180   1.926       .  S
O1177      C1182   1.272       .  A
O1178      C1181   1.267   1_556  A
C1185      H1187   1.085   1_655  S
C1185      C1186   1.368       .  D
C1186      H1188   1.085       .  S
C1189      H1191   1.087       .  S
C1189      C1190   1.342       .  D
C1190      H1192   1.087   1_655  S
C1193      H1195   1.083       .  S
C1193      C1194   1.342       .  D
C1194      H1196   1.089       .  S
C1197      H1199   1.087       .  S
C1197      C1198   1.357       .  D
C1198      H1200   1.085       .  S
C1201      H1203   1.086       .  S
C1201      C1202   1.345       .  D
C1202      H1204   1.088   1_565  S
C1205      H1207   1.086       .  S
C1205      C1206   1.353       .  D
C1206      H1208   1.085       .  S
C1209      H1211   1.089       .  S
C1209      C1210   1.342       .  D
C1210      H1212   1.087       .  S
C1213      H1215   1.085       .  S
C1213      C1214   1.354       .  D
C1214      H1216   1.085       .  S
