geometry optimzed in LAMMPS
_audit_creation_date              2020-11-30 
_audit_creation_method            'lammps2cif' 
_symmetry_space_group_name_H-M    'P1' 
_symmetry_Int_Tables_number       1 
_symmetry_cell_setting            triclinic 
loop_ 
_symmetry_equiv_pos_as_xyz 
  x,y,z 
_cell_length_a                    39.33309802466766 
_cell_length_b                    39.528738538454085 
_cell_length_c                    39.796899287526266 
_cell_angle_alpha                 90.12550468149608 
_cell_angle_beta                  89.97452950874289 
_cell_angle_gamma                 90.05010287727566 
loop_ 
_atom_site_label 
_atom_site_type_symbol 
_atom_site_fract_x 
_atom_site_fract_y 
_atom_site_fract_z 
_atom_site_charge 
O1          O  0.25627352  0.78726628  0.54485153    -0.82040
C2          C  0.14016509  0.77686031  0.46008549     0.97310
O3          O  0.15272542  0.75484345  0.47912849    -0.71160
O4          O  0.21590054  0.74169788  0.46765596    -0.74750
Al5        Al  0.19190793  0.75270230  0.50671846     1.48980
C6          C  0.24693156  0.74760214  0.46347296     0.92570
O7          O  0.24342662  0.83143946  0.46305637    -0.80970
O8          O  0.18865952  0.85207901  0.54254457    -0.74530
Al9        Al  0.24691789  0.80865386  0.50391669     1.90120
O10         O  0.19525523  0.85810415  0.47208935    -0.73600
O11         O  0.13927969  0.80441628  0.53360728    -0.73450
O12         O  0.14805560  0.80787420  0.46394288    -0.79110
O13         O  0.16677627  0.75782286  0.54619569    -0.77310
O14         O  0.20293344  0.79660590  0.50447415    -1.13450
O15         O  0.22867284  0.74013823  0.53438909    -0.72640
C16         C  0.25086834  0.75647617  0.55034811     0.98080
C17         C  0.22343705  0.85524171  0.45654655     0.94470
Al18       Al  0.17049103  0.82809990  0.50314615     1.55560
O19         O  0.26200304  0.77087459  0.47904007    -0.77260
C20         C  0.14221588  0.77747209  0.55074206     0.98640
C21         C  0.21931920  0.86139430  0.54683408     0.93520
O22         O  0.24249231  0.84928399  0.52878837    -0.82580
O23         O  0.74128394  0.21897842  0.54100291    -0.82040
C24         C  0.86069859  0.22448338  0.46131976     0.97310
O25         O  0.84875439  0.24619108  0.48105483    -0.71160
O26         O  0.78632103  0.25928829  0.46258826    -0.74750
Al27       Al  0.80688480  0.24982131  0.50409515     1.48980
C28         C  0.75523468  0.25404498  0.45715193     0.92570
O29         O  0.75425323  0.17028062  0.46147295    -0.80970
O30         O  0.80702993  0.14972177  0.54042123    -0.74530
Al31       Al  0.75082977  0.19541070  0.50106881     1.90120
O32         O  0.80265560  0.14427510  0.47015807    -0.73600
O33         O  0.85652190  0.19796074  0.53401651    -0.73450
O34         O  0.85026083  0.19404945  0.46302577    -0.79110
O35         O  0.82849828  0.24488645  0.54552065    -0.77310
O36         O  0.79487700  0.20606660  0.50234426    -1.13450
O37         O  0.76802910  0.26537292  0.52752900    -0.72640
C38         C  0.74516946  0.25034624  0.54371589     0.98080
C39         C  0.77436427  0.14657634  0.45478329     0.94470
Al40       Al  0.82662799  0.17404187  0.50193756     1.55560
O41         O  0.73850417  0.23237855  0.47349443    -0.77260
C42         C  0.85308370  0.22527943  0.55088049     0.98640
C43         C  0.77587426  0.14247887  0.54543951     0.93520
O44         O  0.75328664  0.15642699  0.52805542    -0.82580
O45         O  0.74236341  0.78716712  0.46112628    -0.82040
C46         C  0.85938124  0.77785311  0.54497116     0.97310
O47         O  0.84539501  0.75594028  0.52690990    -0.71160
O48         O  0.78197866  0.74504156  0.54198145    -0.74750
Al49       Al  0.80539626  0.75333841  0.50151368     1.48980
C50         C  0.75023088  0.74865737  0.54371137     0.92570
O51         O  0.75545782  0.83085404  0.54416854    -0.80970
O52         O  0.80817773  0.85185009  0.46295774    -0.74530
Al53       Al  0.75109293  0.80893671  0.50279532     1.90120
O54         O  0.80277254  0.85877737  0.53375461    -0.73600
O55         O  0.85739922  0.80368569  0.47106958    -0.73450
O56         O  0.85091717  0.80880928  0.54169513    -0.79110
O57         O  0.82944928  0.75651685  0.46141767    -0.77310
O58         O  0.79490471  0.79709286  0.50216969    -1.13450
O59         O  0.76797725  0.74004516  0.47557210    -0.72640
C60         C  0.74620479  0.75556231  0.45841757     0.98080
C61         C  0.77535671  0.85493143  0.55058706     0.94470
Al62       Al  0.82728288  0.82842407  0.50234076     1.55560
O63         O  0.73538605  0.77093152  0.52671332    -0.77260
C64         C  0.85419642  0.77563661  0.45542091     0.98640
C65         C  0.77759856  0.86195932  0.46021843     0.93520
O66         O  0.75513949  0.85017230  0.47920938    -0.82580
O67         O  0.46312252  0.25852038  0.21504953    -0.82040
C68         C  0.54004125  0.13744220  0.22330729     0.97310
O69         O  0.51906561  0.14856239  0.24457853    -0.71160
O70         O  0.53671203  0.21040619  0.26067814    -0.74750
Al71       Al  0.49512912  0.19045617  0.24798198     1.48980
C72         C  0.54347968  0.24110717  0.25581793     0.92570
O73         O  0.54629994  0.23888123  0.17296486    -0.80970
O74         O  0.45989132  0.19229675  0.15023142    -0.74530
Al75       Al  0.50431944  0.24598724  0.19435713     1.90120
O76         O  0.53087167  0.19521583  0.14259059    -0.73600
O77         O  0.46719836  0.14016609  0.19647557    -0.73450
O78         O  0.53863344  0.14775661  0.19294433    -0.79110
O79         O  0.45281006  0.16988212  0.24074911    -0.77310
O80         O  0.49951842  0.20251600  0.20505072    -1.13450
O81         O  0.47054842  0.22905800  0.26119954    -0.72640
C82         C  0.45618035  0.25247944  0.24530327     0.98080
C83         C  0.54990828  0.22090355  0.14718419     0.94470
Al84       Al  0.49916866  0.17118888  0.17301236     1.55560
O85         O  0.52948271  0.25781709  0.23283073    -0.77260
C86         C  0.44847788  0.14449253  0.22231061     0.98640
C87         C  0.45887703  0.22321720  0.14085762     0.93520
O88         O  0.47974935  0.24405586  0.15314317    -0.82580
O89         O  0.78211528  0.54140468  0.26121293    -0.82040
C90         C  0.77394722  0.45865130  0.14454827     0.97310
O91         O  0.75192598  0.47811330  0.15671372    -0.71160
O92         O  0.73891944  0.46294287  0.21874853    -0.74750
Al93       Al  0.74901463  0.50366703  0.19682081     1.48980
C94         C  0.74439169  0.45821538  0.24947088     0.92570
O95         O  0.82792102  0.46012635  0.24712276    -0.80970
O96         O  0.84918792  0.54059756  0.19502504    -0.74530
Al97       Al  0.80448366  0.50076321  0.25139099     1.90120
O98         O  0.85540247  0.46984812  0.20024835    -0.73600
O99         O  0.80055100  0.53319040  0.14600274    -0.73450
O100        O  0.80496533  0.46218245  0.15306085    -0.79110
O101        O  0.75381240  0.54454192  0.17391215    -0.77310
O102        O  0.79304461  0.50198873  0.20796250    -1.13450
O103        O  0.73495434  0.52925104  0.23437984    -0.72640
C104        C  0.75085047  0.54533933  0.25660930     0.98080
C105        C  0.85230283  0.45368124  0.22782574     0.94470
Al106      Al  0.82497680  0.50150233  0.17612610     1.55560
O107        O  0.76686357  0.47445684  0.26518131    -0.77260
C108        C  0.77288892  0.54985532  0.14916401     0.98640
C109        C  0.85752024  0.54504502  0.22562358     0.93520
O110        O  0.84460824  0.52690650  0.24812264    -0.82580
O111        O  0.53930860  0.74800930  0.21870937    -0.82040
C112        C  0.45362284  0.86307820  0.22062369     0.97310
O113        O  0.47120036  0.85095468  0.24383892    -0.71160
O114        O  0.45663575  0.78870912  0.25737422    -0.74750
Al115      Al  0.49769311  0.81192115  0.24871583     1.48980
C116        C  0.45465530  0.75713150  0.25443592     0.92570
O117        O  0.45716060  0.75756431  0.17207741    -0.80970
O118        O  0.53859398  0.80983963  0.15051171    -0.74530
Al119      Al  0.49809370  0.75510133  0.19583786     1.90120
O120        O  0.46736688  0.80408078  0.14356776    -0.73600
O121        O  0.52993186  0.86080902  0.19621613    -0.73450
O122        O  0.45887312  0.85415454  0.19033941    -0.79110
O123        O  0.53808398  0.83660446  0.24536284    -0.77310
O124        O  0.49815288  0.79927656  0.20554897    -1.13450
O125        O  0.52428769  0.77543062  0.26420860    -0.72640
C126        C  0.54191557  0.75308991  0.24982798     0.98080
C127        C  0.45117784  0.77629422  0.14723275     0.94470
Al128      Al  0.49863941  0.82982397  0.17276834     1.55560
O129        O  0.47253352  0.74130924  0.23353187    -0.77260
C130        C  0.54504512  0.85938670  0.22451053     0.98640
C131        C  0.54269327  0.77878920  0.14302879     0.93520
O132        O  0.52367325  0.75703856  0.15601326    -0.82580
O133        O  0.25768065  0.54176939  0.21601635    -0.82040
C134        C  0.14024162  0.45828485  0.22468907     0.97310
O135        O  0.15283110  0.47794507  0.24605350    -0.71160
O136        O  0.21563778  0.46136702  0.25714977    -0.74750
Al137      Al  0.19355092  0.50267216  0.24869175     1.48980
C138        C  0.24713150  0.45799631  0.25293446     0.92570
O139        O  0.24436428  0.45985176  0.17054414    -0.80970
O140        O  0.19064255  0.53999371  0.15002249    -0.74530
Al141      Al  0.24840315  0.50079245  0.19382315     1.90120
O142        O  0.19641859  0.46935959  0.14400896    -0.73600
O143        O  0.14171449  0.53219102  0.19879772    -0.73450
O144        O  0.14918580  0.46107291  0.19404724    -0.79110
O145        O  0.17059229  0.54356273  0.24472662    -0.77310
O146        O  0.20449395  0.50153270  0.20524550    -1.13450
O147        O  0.23141157  0.52823660  0.26272760    -0.72640
C148        C  0.25273240  0.54574630  0.24695221     0.98080
C149        C  0.22435814  0.45322470  0.14679146     0.94470
Al150      Al  0.17204569  0.50074725  0.17411728     1.55560
O151        O  0.26298329  0.47512290  0.23134424    -0.77260
C152        C  0.14527811  0.54874899  0.22621187     0.98640
C153        C  0.22151661  0.54458474  0.14151207     0.93520
O154        O  0.24450620  0.52659221  0.15407470    -0.82580
O155        O  0.21295395  0.53855986  0.74092964    -0.82040
C156        C  0.22554540  0.45956803  0.85941687     0.97310
O157        O  0.24706486  0.47953768  0.84696055    -0.71160
O158        O  0.26168087  0.46469975  0.78491059    -0.74750
Al159      Al  0.24910325  0.50507952  0.80674491     1.48980
C160        C  0.25599885  0.45895643  0.75437756     0.92570
O161        O  0.17315626  0.45464404  0.75969238    -0.80970
O162        O  0.14977711  0.53952260  0.80751758    -0.74530
Al163      Al  0.19331413  0.49691076  0.75278724     1.90120
O164        O  0.14303248  0.46858516  0.80389380    -0.73600
O165        O  0.19689651  0.53222357  0.85782196    -0.73450
O166        O  0.19438177  0.46182703  0.85065267    -0.79110
O167        O  0.24275224  0.54597782  0.82961501    -0.77310
O168        O  0.20530384  0.50091156  0.79585763    -1.13450
O169        O  0.26057889  0.53123481  0.76904046    -0.72640
C170        C  0.24371849  0.54545778  0.74622995     0.98080
C171        C  0.14748628  0.45019889  0.77790448     0.94470
Al172      Al  0.17347125  0.50056698  0.82755094     1.55560
O173        O  0.23225718  0.47330234  0.73894532    -0.77260
C174        C  0.22355912  0.55007851  0.85442941     0.98640
C175        C  0.13945251  0.54073913  0.77715456     0.93520
O176        O  0.15097466  0.51995944  0.75603544    -0.82580
O177        O  0.45894045  0.74426762  0.78867975    -0.82040
C178        C  0.54090811  0.86267471  0.78006328     0.97310
O179        O  0.52222150  0.84920658  0.75832912    -0.71160
O180        O  0.53965425  0.78630142  0.74655287    -0.74750
Al181      Al  0.49786780  0.80833109  0.75555961     1.48980
C182        C  0.54264839  0.75483703  0.75076608     0.92570
O183        O  0.54205062  0.75900316  0.83275248    -0.80970
O184        O  0.45950354  0.81023920  0.85390058    -0.74530
Al185      Al  0.50062085  0.75413392  0.81058489     1.90120
O186        O  0.53109236  0.80571346  0.86060980    -0.73600
O187        O  0.46699847  0.85933796  0.80598326    -0.73450
O188        O  0.53843972  0.85344793  0.81064721    -0.79110
O189        O  0.45647258  0.83094281  0.75956199    -0.77310
O190        O  0.49912337  0.79764325  0.79905862    -1.13450
O191        O  0.47294484  0.77005263  0.74195940    -0.72640
C192        C  0.45639521  0.74762093  0.75727052     0.98080
C193        C  0.54805952  0.77835119  0.85712302     0.94470
Al194      Al  0.49901640  0.82971114  0.83038299     1.55560
O195        O  0.52585429  0.73988256  0.77311919    -0.77260
C196        C  0.45056769  0.85573602  0.77852681     0.98640
C197        C  0.45707736  0.77969577  0.86367937     0.93520
O198        O  0.47610421  0.75755289  0.85121481    -0.82580
O199        O  0.78203179  0.46141663  0.74577214    -0.82040
C200        C  0.77574723  0.54185373  0.86356982     0.97310
O201        O  0.75387963  0.52207096  0.85171064    -0.71160
O202        O  0.74104369  0.54042461  0.78998254    -0.74750
Al203      Al  0.75037618  0.49868616  0.81048282     1.48980
C204        C  0.74641020  0.54554838  0.75923070     0.92570
O205        O  0.83017142  0.54172314  0.75934627    -0.80970
O206        O  0.85029271  0.46105331  0.81082091    -0.74530
Al207      Al  0.80537636  0.50173552  0.75547839     1.90120
O208        O  0.85663413  0.53186439  0.80694667    -0.73600
O209        O  0.80190996  0.46828110  0.85997184    -0.73450
O210        O  0.80648939  0.53952903  0.85376949    -0.79110
O211        O  0.75498895  0.45700432  0.83193480    -0.77310
O212        O  0.79435815  0.50024942  0.79892774    -1.13450
O213        O  0.73526557  0.47503570  0.77211436    -0.72640
C214        C  0.75048472  0.45872041  0.74956589     0.98080
C215        C  0.85414319  0.54771170  0.77924682     0.94470
Al216      Al  0.82634908  0.50018304  0.83044652     1.55560
O217        O  0.76824043  0.52894296  0.74296555    -0.77260
C218        C  0.77425945  0.45166980  0.85657086     0.98640
C219        C  0.85805629  0.45678500  0.77999425     0.93520
O220        O  0.84475732  0.47522549  0.75805400    -0.82580
O221        O  0.53533473  0.25755041  0.78890366    -0.82040
C222        C  0.45573932  0.13846600  0.78227984     0.97310
O223        O  0.47343087  0.15157359  0.75956537    -0.71160
O224        O  0.45678386  0.21318359  0.74706096    -0.74750
Al225      Al  0.49841511  0.19184310  0.75597056     1.48980
C226        C  0.45193041  0.24413469  0.75209726     0.92570
O227        O  0.45366296  0.23983925  0.83436787    -0.80970
O228        O  0.53967957  0.19232222  0.85306378    -0.74530
Al229      Al  0.49460015  0.24637459  0.81126885     1.90120
O230        O  0.46862738  0.19431975  0.86239167    -0.73600
O231        O  0.53182804  0.14198434  0.80636744    -0.73450
O232        O  0.46080760  0.14624811  0.81297715    -0.79110
O233        O  0.53986904  0.16894259  0.75883735    -0.77310
O234        O  0.49771462  0.20286095  0.79957479    -1.13450
O235        O  0.52322746  0.23020488  0.74230376    -0.72640
C236        C  0.53898280  0.25318486  0.75776222     0.98080
C237        C  0.45000386  0.22048871  0.85909230     0.94470
Al238      Al  0.50005435  0.17116209  0.83119524     1.55560
O239        O  0.46806413  0.26005293  0.77428810    -0.77260
C240        C  0.54692943  0.14492666  0.77821636     0.98640
C241        C  0.54146479  0.22306767  0.86261951     0.93520
O242        O  0.52039768  0.24401141  0.85132193    -0.82580
O243        O  0.26004570  0.21409452  0.46593744    -0.82040
C244        C  0.13893633  0.22515709  0.54218884     0.97310
O245        O  0.15107632  0.24642641  0.52196134    -0.71160
O246        O  0.21313628  0.26020752  0.54046240    -0.74750
Al247      Al  0.19339513  0.24897604  0.49895303     1.48980
C248        C  0.24411439  0.25544507  0.54646106     0.92570
O249        O  0.24069404  0.17287280  0.54839708    -0.80970
O250        O  0.19311530  0.15013033  0.46379089    -0.74530
Al251      Al  0.24791266  0.19384001  0.50692171     1.90120
O252        O  0.19570550  0.14335386  0.53427274    -0.73600
O253        O  0.14259292  0.19800365  0.46989224    -0.73450
O254        O  0.14860108  0.19440712  0.54054501    -0.79110
O255        O  0.17274084  0.24280793  0.45711365    -0.77310
O256        O  0.20445029  0.20542261  0.50262096    -1.13450
O257        O  0.23310632  0.26189792  0.47529865    -0.72640
C258        C  0.25588719  0.24513198  0.46061133     0.98080
C259        C  0.22173332  0.14774955  0.55293730     0.94470
Al260      Al  0.17239055  0.17384765  0.50213826     1.55560
O261        O  0.26088783  0.23268804  0.53177963    -0.77260
C262        C  0.14695014  0.22466449  0.45230097     0.98640
C263        C  0.22393863  0.14022209  0.46230081     0.93520
O264        O  0.24524227  0.15214287  0.48282486    -0.82580
C265        C  0.37649582  0.33308616  0.66828081     0.02880
C266        C  0.36675842  0.36510532  0.67973815    -0.13270
C267        C  0.33840377  0.38108265  0.66580490     0.00380
C268        C  0.32335927  0.36755765  0.63684915    -0.11790
C269        C  0.33312307  0.33568768  0.62533009     0.02880
C270        C  0.36076613  0.31926968  0.63996121    -0.11210
H271        H  0.37785550  0.37489754  0.70265260     0.08470
H272        H  0.30041213  0.37899894  0.62693059     0.06000
H273        H  0.36678220  0.29366169  0.63215433     0.05850
C274        C  0.33481689  0.33099768  0.37827512     0.02880
C275        C  0.36434162  0.31966994  0.36253954    -0.13270
C276        C  0.37422530  0.33359055  0.33169483     0.00380
C277        C  0.35675720  0.36160865  0.31911446    -0.11790
C278        C  0.32817711  0.37395260  0.33593672     0.02880
C279        C  0.31719384  0.35871504  0.36552793    -0.11210
H280        H  0.37660952  0.29693068  0.37171662     0.08470
H281        H  0.36256416  0.37116938  0.29426473     0.06000
H282        H  0.29309486  0.36609511  0.37659269     0.05850
C283        C  0.65995487  0.33029143  0.62781305     0.02880
C284        C  0.67670574  0.35973590  0.63805055    -0.13270
C285        C  0.66619004  0.37676829  0.66694891     0.00380
C286        C  0.63771817  0.36537354  0.68460261    -0.11790
C287        C  0.62058544  0.33637633  0.67404621     0.02880
C288        C  0.63104950  0.31942913  0.64499653    -0.11210
H289        H  0.70003646  0.36738513  0.62566512     0.08470
H290        H  0.63089582  0.37698341  0.70837768     0.06000
H291        H  0.61891072  0.29587652  0.63779916     0.05850
C292        C  0.66737270  0.62645451  0.67097091     0.02880
C293        C  0.67795411  0.63314437  0.63811490    -0.13270
C294        C  0.66583794  0.66184013  0.62144985     0.00380
C295        C  0.63874237  0.68014352  0.63519612    -0.11790
C296        C  0.62675918  0.67235124  0.66720629     0.02880
C297        C  0.64112364  0.64551580  0.68498898    -0.11210
H298        H  0.69889661  0.61900552  0.62735137     0.08470
H299        H  0.62946736  0.70262659  0.62277530     0.06000
H300        H  0.63398560  0.64154817  0.71100770     0.05850
C301        C  0.33484026  0.66975525  0.62851774     0.02880
C302        C  0.36381175  0.68171192  0.64506811    -0.13270
C303        C  0.37838493  0.66287671  0.67101465     0.00380
C304        C  0.36462564  0.63164429  0.67978561    -0.11790
C305        C  0.33440826  0.62070929  0.66482475     0.02880
C306        C  0.32131155  0.63824862  0.63735514    -0.11210
H307        H  0.37246874  0.70737939  0.64081338     0.08470
H308        H  0.37424548  0.61861979  0.70178162     0.06000
H309        H  0.29745707  0.63015716  0.62636425     0.05850
C310        C  0.33120088  0.62879058  0.33420424     0.02880
C311        C  0.31925509  0.63932895  0.36569401    -0.13270
C312        C  0.33357448  0.66775431  0.38115345     0.00380
C313        C  0.36322499  0.68198462  0.36809308    -0.11790
C314        C  0.37478860  0.67171548  0.33672686     0.02880
C315        C  0.35945369  0.64478221  0.32009023    -0.11210
H316        H  0.29629991  0.62829953  0.37597962     0.08470
H317        H  0.37395242  0.70449418  0.37958479     0.06000
H318        H  0.36715780  0.63896013  0.29454729     0.05850
C319        C  0.61899574  0.66567700  0.33427954     0.02880
C320        C  0.63404063  0.68347083  0.36074383    -0.13270
C321        C  0.66388640  0.67180338  0.37524974     0.00380
C322        C  0.67814528  0.64133690  0.36467783    -0.11790
C323        C  0.66344515  0.62370665  0.33805904     0.02880
C324        C  0.63298547  0.63485931  0.32394393    -0.11210
H325        H  0.62502535  0.70842397  0.36758879     0.08470
H326        H  0.70295909  0.63385389  0.37394863     0.06000
H327        H  0.62295226  0.62201817  0.30197268     0.05850
C328        C  0.62057155  0.33159314  0.33647043     0.02880
C329        C  0.63471859  0.31958135  0.36628959    -0.13270
C330        C  0.66505894  0.33355518  0.37827225     0.00380
C331        C  0.67735540  0.36343266  0.36401908    -0.11790
C332        C  0.66247582  0.37644418  0.33489173     0.02880
C333        C  0.63315191  0.36127531  0.32200215    -0.11210
H334        H  0.62527603  0.29621159  0.37700661     0.08470
H335        H  0.70134878  0.37387130  0.37250559     0.06000
H336        H  0.62308099  0.36948876  0.29804921     0.05850
O337        O  0.76001507  0.03812204  0.71240808    -0.82040
C338        C  0.64110161  0.95720365  0.72491017     0.97310
O339        O  0.65597216  0.97430793  0.74708047    -0.71160
O340        O  0.71884706  0.95939002  0.75701867    -0.74750
Al341      Al  0.69595861  0.00039722  0.74891355     1.48980
C342        C  0.75028927  0.95663941  0.75258139     0.92570
O343        O  0.74145938  0.95497619  0.67084481    -0.80970
O344        O  0.69273573  0.04070221  0.65217601    -0.74530
Al345      Al  0.74869857  0.99669741  0.69202636     1.90120
O346        O  0.69500106  0.96955952  0.64344823    -0.73600
O347        O  0.64339817  0.03297617  0.70023008    -0.73450
O348        O  0.64755335  0.96241243  0.69393624    -0.79110
O349        O  0.67190205  0.04106647  0.74673020    -0.77310
O350        O  0.70526939  0.99949724  0.70520693    -1.13450
O351        O  0.73417152  0.02704386  0.76034931    -0.72640
C352        C  0.75548965  0.04356228  0.74328741     0.98080
C353        C  0.72145341  0.95107371  0.64648639     0.94470
Al354      Al  0.67224783  0.00127013  0.67476743     1.55560
O355        O  0.76506900  0.97282693  0.72976082    -0.77260
C356        C  0.64712448  0.04821395  0.72824008     0.98640
C357        C  0.72308415  0.04198531  0.64102516     0.93520
O358        O  0.74423947  0.02041795  0.65092485    -0.82580
C359        C  0.87432652  0.17268093  0.83665256     0.02880
C360        C  0.86239018  0.14484393  0.81840160    -0.13270
C361        C  0.83456368  0.12631419  0.83003575     0.00380
C362        C  0.82001404  0.13453926  0.86106838    -0.11790
C363        C  0.83026603  0.16370990  0.87797013     0.02880
C364        C  0.85828905  0.18208458  0.86650991    -0.11210
H365        H  0.87232613  0.14015097  0.79342438     0.08470
H366        H  0.79767430  0.12103254  0.86975760     0.06000
H367        H  0.86550494  0.20545186  0.87894425     0.05850
O368        O  0.04134400  0.24405948  0.71505279    -0.82040
C369        C  0.95779557  0.36063224  0.72529740     0.97310
O370        O  0.97900490  0.34945142  0.74604096    -0.71160
O371        O  0.96332006  0.28693985  0.75980632    -0.74750
Al372      Al  0.00430076  0.30897099  0.74847382     1.48980
C373        C  0.95933827  0.25559788  0.75575240     0.92570
O374        O  0.95756417  0.25713705  0.67275764    -0.80970
O375        O  0.03796410  0.31017459  0.64900497    -0.74530
Al376      Al  0.99950126  0.25337989  0.69448722     1.90120
O377        O  0.96706785  0.30384689  0.64476608    -0.73600
O378        O  0.03064258  0.36002389  0.69656996    -0.73450
O379        O  0.95948286  0.35102414  0.69474646    -0.79110
O380        O  0.04536033  0.33179637  0.74187535    -0.77310
O381        O  0.00098225  0.29717598  0.70532166    -1.13450
O382        O  0.03050961  0.27155191  0.76175262    -0.72640
C383        C  0.04666466  0.24939891  0.74569532     0.98080
C384        C  0.95092069  0.27613144  0.64836280     0.94470
Al385      Al  0.99893204  0.32883140  0.67370619     1.55560
O386        O  0.97509260  0.23975541  0.73309407    -0.77260
C387        C  0.04923058  0.35656829  0.72257104     0.98640
C388        C  0.04223738  0.27928174  0.64079080     0.93520
O389        O  0.02398760  0.25672271  0.65379952    -0.82580
O390        O  0.24012006  0.96222669  0.71678889    -0.82040
C391        C  0.35948120  0.04261903  0.72448380     0.97310
O392        O  0.34669630  0.02354932  0.74618803    -0.71160
O393        O  0.28383847  0.04246619  0.75736336    -0.74750
Al394      Al  0.30498279  0.00033855  0.74913668     1.48980
C395        C  0.25229703  0.04610367  0.75316779     0.92570
O396        O  0.25532924  0.04339585  0.67006129    -0.80970
O397        O  0.30727080  0.96094533  0.65156562    -0.74530
Al398      Al  0.25041862  0.00282049  0.69383179     1.90120
O399        O  0.30298698  0.03176089  0.64356985    -0.73600
O400        O  0.35613383  0.96914555  0.69966690    -0.73450
O401        O  0.34991210  0.04026756  0.69398313    -0.79110
O402        O  0.32690358  0.95854740  0.74559576    -0.77310
O403        O  0.29414988  0.00120549  0.70556621    -1.13450
O404        O  0.26601498  0.97667364  0.76334261    -0.72640
C405        C  0.24340297  0.96016911  0.74819405     0.98080
C406        C  0.27558968  0.04877996  0.64628291     0.94470
Al407      Al  0.32656321  0.00057934  0.67455554     1.55560
O408        O  0.23664987  0.02950260  0.73092008    -0.77260
C409        C  0.35213520  0.95274535  0.72700984     0.98640
C410        C  0.27652399  0.95743150  0.64225613     0.93520
O411        O  0.25387836  0.97645634  0.65403452    -0.82580
C412        C  0.16011787  0.16850392  0.88219077     0.02880
C413        C  0.13093444  0.17965438  0.86579257    -0.13270
C414        C  0.12264453  0.16652610  0.83426020     0.00380
C415        C  0.14083978  0.13909531  0.82154753    -0.11790
C416        C  0.16852518  0.12596531  0.83924708     0.02880
C417        C  0.17802766  0.14057654  0.86982812    -0.11210
H418        H  0.11804289  0.20210371  0.87496494     0.08470
H419        H  0.13624822  0.13069811  0.79601091     0.06000
H420        H  0.20147919  0.13280900  0.88185119     0.05850
O421        O  0.04160215  0.71414065  0.75781370    -0.82040
C422        C  0.95522645  0.72312689  0.64382541     0.97310
O423        O  0.97498965  0.74486510  0.65590400    -0.71160
O424        O  0.96041692  0.75693924  0.71856921    -0.74750
Al425      Al  0.00119032  0.74733162  0.69545907     1.48980
C426        C  0.95839620  0.75310097  0.74991524     0.92570
O427        O  0.95840857  0.66943106  0.74655084    -0.80970
O428        O  0.03787387  0.64745594  0.69233110    -0.74530
Al429      Al  0.99980586  0.69222802  0.74963718     1.90120
O430        O  0.96674077  0.64224672  0.69911354    -0.73600
O431        O  0.02961577  0.69605251  0.64382100    -0.73450
O432        O  0.95859577  0.69217870  0.65200350    -0.79110
O433        O  0.04193821  0.74247910  0.67187069    -0.77310
O434        O  0.99972143  0.70357751  0.70626408    -1.13450
O435        O  0.02745179  0.76115544  0.73252960    -0.72640
C436        C  0.04425346  0.74564392  0.75447256     0.98080
C437        C  0.95113280  0.64543385  0.72707394     0.94470
Al438      Al  0.99830686  0.67194903  0.67433792     1.55560
O439        O  0.97484390  0.73017064  0.76453621    -0.77260
C440        C  0.04706379  0.72307432  0.64732715     0.98640
C441        C  0.04282567  0.63913642  0.72283742     0.93520
O442        O  0.02494060  0.65195537  0.74560500    -0.82580
C443        C  0.12197082  0.83077162  0.83976407     0.02880
C444        C  0.13210994  0.85962107  0.82221151    -0.13270
C445        C  0.16134300  0.87700488  0.83185697     0.00380
C446        C  0.17891129  0.86727647  0.86077684    -0.11790
C447        C  0.16889321  0.83837740  0.87824496     0.02880
C448        C  0.13978478  0.82074264  0.86828974    -0.11210
H449        H  0.11952512  0.86637508  0.79894878     0.08470
H450        H  0.20232703  0.88001644  0.86762910     0.06000
H451        H  0.13307820  0.79716605  0.88052160     0.05850
O452        O  0.28249791  0.75670473  0.96161364    -0.82040
C453        C  0.27648116  0.63821725  0.04150538     0.97310
O454        O  0.25525261  0.64932225  0.02073890    -0.71160
O455        O  0.24205754  0.71163493  0.04011511    -0.74750
Al456      Al  0.25183045  0.69166054  0.99835949     1.48980
C457        C  0.24739690  0.74259807  0.04568373     0.92570
O458        O  0.33156413  0.74462097  0.04081853    -0.80970
O459        O  0.35263754  0.69102015  0.96313453    -0.74530
Al460      Al  0.30622105  0.74747432  0.00148637     1.90120
O461        O  0.35725381  0.69592503  0.03344559    -0.73600
O462        O  0.30352269  0.64195148  0.96913474    -0.73450
O463        O  0.30693258  0.64902301  0.04042398    -0.79110
O464        O  0.25779953  0.67134409  0.95642607    -0.77310
O465        O  0.29566114  0.70366739  0.00055310    -1.13450
O466        O  0.23589526  0.73058858  0.97575225    -0.72640
C467        C  0.25090240  0.75335919  0.95959039     0.98080
C468        C  0.35498334  0.72447045  0.04817372     0.94470
Al469      Al  0.32761048  0.67192136  0.00146999     1.55560
O470        O  0.26906798  0.75940020  0.02927300    -0.77260
C471        C  0.27694036  0.64638597  0.95110538     0.98640
C472        C  0.35945569  0.72201254  0.95755377     0.93520
O473        O  0.34518414  0.74484157  0.97430097    -0.82580
O474        O  0.04094066  0.75773105  0.29060297    -0.82040
C475        C  0.95636678  0.64160392  0.27945801     0.97310
O476        O  0.97545989  0.65434464  0.25752769    -0.71160
O477        O  0.96192519  0.71759557  0.24467793    -0.74750
Al478      Al  0.00220903  0.69418657  0.25514425     1.48980
C479        C  0.95983966  0.74913716  0.24808421     0.92570
O480        O  0.95592506  0.74425585  0.33046437    -0.80970
O481        O  0.03876668  0.69270690  0.35372367    -0.74530
Al482      Al  0.99845098  0.74881323  0.31009442     1.90120
O483        O  0.96727451  0.69848762  0.35961331    -0.73600
O484        O  0.03050691  0.64254933  0.30641466    -0.73450
O485        O  0.95935920  0.65062435  0.31008346    -0.79110
O486        O  0.04223372  0.66992940  0.25991189    -0.77310
O487        O  0.99994745  0.70520166  0.29852061    -1.13450
O488        O  0.03010846  0.73129566  0.24299997    -0.72640
C489        C  0.04682160  0.75255762  0.25994065     0.98080
C490        C  0.95059473  0.72593862  0.35572577     0.94470
Al491      Al  0.99904198  0.67349508  0.33002933     1.55560
O492        O  0.97576215  0.76405661  0.27115057    -0.77260
C493        C  0.04709539  0.64524164  0.27900148     0.98640
C494        C  0.04071495  0.72319452  0.36406076     0.93520
O495        O  0.02111541  0.74501188  0.35187595    -0.82580
C496        C  0.16650216  0.83091028  0.12509204     0.02880
C497        C  0.18069747  0.86182430  0.13499596    -0.13270
C498        C  0.17138108  0.87621002  0.16558934     0.00380
C499        C  0.14527025  0.86197334  0.18461667    -0.11790
C500        C  0.12947102  0.83223347  0.17382439     0.02880
C501        C  0.13939027  0.81742456  0.14339293    -0.11210
H502        H  0.20245576  0.87196835  0.12162034     0.08470
H503        H  0.14032538  0.87170238  0.20963101     0.06000
H504        H  0.12905922  0.79298762  0.13651515     0.05850
O505        O  0.71494280  0.75984416  0.03953829    -0.82040
C506        C  0.72166290  0.64167140  0.95830007     0.97310
O507        O  0.74481138  0.65589715  0.97468506    -0.71160
O508        O  0.75733718  0.71797287  0.96057707    -0.74750
Al509      Al  0.74843437  0.69497100  0.00104224     1.48980
C510        C  0.75353192  0.74933295  0.95781930     0.92570
O511        O  0.66978089  0.74441837  0.95811966    -0.80970
O512        O  0.64941573  0.69536053  0.04169177    -0.74530
Al513      Al  0.69286711  0.74979552  0.99885816     1.90120
O514        O  0.64169470  0.69787323  0.97097683    -0.73600
O515        O  0.69671034  0.64498196  0.03453168    -0.73450
O516        O  0.69064931  0.64882790  0.96420472    -0.79110
O517        O  0.74587299  0.67034650  0.04097230    -0.77310
O518        O  0.70439450  0.70598553  0.00089350    -1.13450
O519        O  0.76199349  0.73207059  0.02774530    -0.72640
C520        C  0.74608295  0.75420650  0.04424206     0.98080
C521        C  0.64490452  0.72488949  0.95369878     0.94470
Al522      Al  0.67220030  0.67427609  0.00269170     1.55560
O523        O  0.73093505  0.76449206  0.97421079    -0.77260
C524        C  0.72565594  0.64708032  0.04877656     0.98640
C525        C  0.63981739  0.72608836  0.04344051     0.93520
O526        O  0.65199170  0.74706138  0.02321277    -0.82580
C527        C  0.88121554  0.83390694  0.16280494     0.02880
C528        C  0.86589552  0.82361755  0.13279892    -0.13270
C529        C  0.83371266  0.83591154  0.12416161     0.00380
C530        C  0.81925475  0.86193130  0.14312287    -0.11790
C531        C  0.83566629  0.87396660  0.17182608     0.02880
C532        C  0.86655586  0.85995476  0.18170266    -0.11210
H533        H  0.87668412  0.80261635  0.11884430     0.08470
H534        H  0.79346392  0.87006598  0.13806206     0.06000
H535        H  0.87714003  0.86693245  0.20587572     0.05850
O536        O  0.24288240  0.28653174  0.96011653    -0.82040
C537        C  0.35856631  0.27840981  0.04593041     0.97310
O538        O  0.34520638  0.25617950  0.02771271    -0.71160
O539        O  0.28144043  0.24580454  0.04131913    -0.74750
Al540      Al  0.30553330  0.25368623  0.00127379     1.48980
C541        C  0.24967678  0.24971950  0.04288265     0.92570
O542        O  0.25435174  0.33382887  0.04124197    -0.80970
O543        O  0.30939104  0.35286541  0.96222032    -0.74530
Al544      Al  0.25124656  0.30959758  0.00096328     1.90120
O545        O  0.30363557  0.35911918  0.03294166    -0.73600
O546        O  0.35808629  0.30388050  0.97095581    -0.73450
O547        O  0.35117013  0.30939639  0.04120664    -0.79110
O548        O  0.33011870  0.25665393  0.96113419    -0.77310
O549        O  0.29516375  0.29763291  0.00143689    -1.13450
O550        O  0.26824057  0.23970003  0.97526674    -0.72640
C551        C  0.24621742  0.25491749  0.95821418     0.98080
C552        C  0.27514579  0.35700260  0.04812140     0.94470
Al553      Al  0.32791427  0.32885705  0.00179851     1.55560
O554        O  0.23533413  0.27252756  0.02619623    -0.77260
C555        C  0.35453717  0.27616735  0.95486274     0.98640
C556        C  0.27854397  0.36147148  0.95744912     0.93520
O557        O  0.25578205  0.34911667  0.97565570    -0.82580
O558        O  0.23946238  0.03828983  0.29306376    -0.82040
C559        C  0.35925764  0.95959869  0.27941409     0.97310
O560        O  0.34787542  0.98104021  0.25900742    -0.71160
O561        O  0.28514018  0.96322884  0.24548931    -0.74750
Al562      Al  0.30576876  0.00471136  0.25739179     1.48980
C563        C  0.25367730  0.95870622  0.24920979     0.92570
O564        O  0.25767812  0.95424774  0.33155282    -0.80970
O565        O  0.30751267  0.03764853  0.35576007    -0.74530
Al566      Al  0.25115956  0.99650099  0.31195395     1.90120
O567        O  0.30286193  0.96662135  0.36114882    -0.73600
O568        O  0.35793480  0.03106730  0.30770419    -0.73450
O569        O  0.34933212  0.96003115  0.30990230    -0.79110
O570        O  0.32687115  0.04659491  0.26464248    -0.77310
O571        O  0.29474722  0.00016552  0.30039387    -1.13450
O572        O  0.26673442  0.02941402  0.24565565    -0.72640
C573        C  0.24416626  0.04438724  0.26247749     0.98080
C574        C  0.27619512  0.94873039  0.35657977     0.94470
Al575      Al  0.32703649  0.99893626  0.33139770     1.55560
O576        O  0.23747282  0.97304789  0.27255766    -0.77260
C577        C  0.35307314  0.05020087  0.28229512     0.98640
C578        C  0.27661438  0.04014462  0.36526702     0.93520
O579        O  0.25474330  0.01983960  0.35377242    -0.82580
O580        O  0.03631600  0.28659252  0.24466787    -0.82040
C581        C  0.95531537  0.27977439  0.36252463     0.97310
O582        O  0.97258955  0.25684034  0.34897043    -0.71160
O583        O  0.95858677  0.24360149  0.28759988    -0.74750
Al584      Al  0.99922058  0.25335364  0.30984010     1.48980
C585        C  0.95360570  0.24881274  0.25702005     0.92570
O586        O  0.95501992  0.33219592  0.26038168    -0.80970
O587        O  0.03889121  0.35199350  0.30967448    -0.74530
Al588      Al  0.99573205  0.30866125  0.25512475     1.90120
O589        O  0.96756802  0.35968522  0.30691709    -0.73600
O590        O  0.03184475  0.30515522  0.35964286    -0.73450
O591        O  0.96067906  0.31064044  0.35509535    -0.79110
O592        O  0.03967873  0.25669071  0.33386869    -0.77310
O593        O  0.99816418  0.29721627  0.29869122    -1.13450
O594        O  0.02620820  0.23985299  0.27282671    -0.72640
C595        C  0.04225652  0.25602965  0.25068981     0.98080
C596        C  0.95040844  0.35679636  0.27985245     0.94470
Al597      Al  0.99961204  0.32928951  0.33028221     1.55560
O598        O  0.96955935  0.27118830  0.24122312    -0.77260
C599        C  0.04690238  0.27672631  0.35725046     0.98640
C600        C  0.04173540  0.36066570  0.27900620     0.93520
O601        O  0.02151549  0.34876792  0.25767710    -0.82580
C602        C  0.16582021  0.12346236  0.17269449     0.02880
C603        C  0.17845640  0.13248977  0.14096585    -0.13270
C604        C  0.16963221  0.16379257  0.12683320     0.00380
C605        C  0.14480217  0.18356988  0.14296443    -0.11790
C606        C  0.12951386  0.17265008  0.17262965     0.02880
C607        C  0.13948843  0.14214819  0.18693737    -0.11210
H608        H  0.19767614  0.11677749  0.12937134     0.08470
H609        H  0.13940542  0.20894008  0.13425530     0.06000
H610        H  0.12946173  0.13511113  0.21130965     0.05850
O611        O  0.75785015  0.28516994  0.04287292    -0.82040
C612        C  0.64024615  0.27747923  0.95985549     0.97310
O613        O  0.65205208  0.25563024  0.97947238    -0.71160
O614        O  0.71494022  0.24193820  0.96427367    -0.74750
Al615      Al  0.69236249  0.25247560  0.00488045     1.48980
C616        C  0.74667081  0.24520733  0.96160574     0.92570
O617        O  0.74415459  0.32831437  0.96030662    -0.80970
O618        O  0.69246320  0.35184363  0.04145500    -0.74530
Al619      Al  0.74839220  0.30653643  0.00156955     1.90120
O620        O  0.69795006  0.35751576  0.97081129    -0.73600
O621        O  0.64143551  0.30453476  0.03360125    -0.73450
O622        O  0.64926223  0.30828619  0.96316013    -0.79110
O623        O  0.66914923  0.25786221  0.04562240    -0.77310
O624        O  0.70428088  0.29586434  0.00298575    -1.13450
O625        O  0.72970524  0.23880458  0.03054855    -0.72640
C626        C  0.75242945  0.25403299  0.04685346     0.98080
C627        C  0.72558171  0.35342477  0.95441605     0.94470
Al628      Al  0.67270609  0.32805316  0.00231558     1.55560
O629        O  0.76236065  0.26785678  0.97749589    -0.77260
C630        C  0.64473142  0.27760010  0.05092458     0.98640
C631        C  0.72347705  0.36088842  0.04434268     0.93520
O632        O  0.74537321  0.34773476  0.02546388    -0.82580
O633        O  0.75484585  0.95603568  0.28805710    -0.82040
C634        C  0.64159964  0.04627838  0.28062391     0.97310
O635        O  0.65636283  0.02988775  0.25802981    -0.71160
O636        O  0.72052713  0.04074781  0.24880845    -0.74750
Al637      Al  0.69445982  0.00138491  0.25548854     1.48980
C638        C  0.75226168  0.04064078  0.25270893     0.92570
O639        O  0.74655750  0.03794698  0.33536219    -0.80970
O640        O  0.68914585  0.96103509  0.35467185    -0.74530
Al641      Al  0.74838082  0.99738482  0.31122481     1.90120
O642        O  0.69657283  0.03217927  0.35983892    -0.73600
O643        O  0.64158028  0.96929128  0.30550019    -0.73450
O644        O  0.64804518  0.04005324  0.31127176    -0.79110
O645        O  0.66761633  0.96250806  0.25702164    -0.77310
O646        O  0.70443414  0.99983012  0.29925683    -1.13450
O647        O  0.73042396  0.97318376  0.24163900    -0.72640
C648        C  0.75118529  0.95431893  0.25665173     0.98080
C649        C  0.72573367  0.04641098  0.35792908     0.94470
Al650      Al  0.67161001  0.00059901  0.33027513     1.55560
O651        O  0.76588172  0.02225167  0.27455578    -0.77260
C652        C  0.64427130  0.95450917  0.27706206     0.98640
C653        C  0.71963840  0.95542380  0.36348766     0.93520
O654        O  0.74330144  0.97199157  0.35060978    -0.82580
C655        C  0.87328386  0.16599904  0.17212096     0.02880
C656        C  0.85997833  0.18069421  0.14317933    -0.13270
C657        C  0.83465306  0.16420160  0.12449430     0.00380
C658        C  0.82502242  0.13135658  0.13403632    -0.11790
C659        C  0.83581793  0.11836820  0.16489811     0.02880
C660        C  0.86140316  0.13470125  0.18287993    -0.11210
H661        H  0.86718342  0.20649248  0.13748477     0.08470
H662        H  0.80601731  0.11746609  0.12006488     0.06000
H663        H  0.86872179  0.12538098  0.20746005     0.05850
C664        C  0.83927121  0.83360109  0.87857832     0.02880
C665        C  0.82270093  0.86299318  0.86809534    -0.13270
C666        C  0.83453520  0.88072184  0.84017489     0.00380
C667        C  0.86413194  0.87029283  0.82383680    -0.11790
C668        C  0.87993201  0.84025729  0.83338867     0.02880
C669        C  0.86835087  0.82271257  0.86164758    -0.11210
H670        H  0.79840008  0.86985247  0.87903831     0.08470
H671        H  0.87217961  0.88296505  0.80104167     0.06000
H672        H  0.87969552  0.79863783  0.86826623     0.05850
C673        C  0.81315023  0.09616031  0.18387621    -0.05710
C674        C  0.82571470  0.06610851  0.19746826    -0.33140
C675        C  0.80636619  0.04800898  0.22064378     0.36110
C676        C  0.77385826  0.05991125  0.22996819    -0.06070
C677        C  0.76133419  0.08979540  0.21627964    -0.33040
C678        C  0.78093109  0.10832302  0.19371897     0.36020
H679        H  0.85092388  0.05728205  0.19083607     0.16390
O680        O  0.81912667  0.01842068  0.23342434    -0.60540
H681        H  0.73672083  0.09942301  0.22397445     0.16400
O682        O  0.77019620  0.13991194  0.18407296    -0.60630
H683        H  0.74563001  0.13782990  0.17880899     0.43400
H684        H  0.83337433  0.02532878  0.25282369     0.43350
C685        C  0.81366196  0.18473501  0.10114061    -0.05710
C686        C  0.82893128  0.21191080  0.08379744    -0.33140
C687        C  0.80918354  0.23665397  0.06829136     0.36110
C688        C  0.77371290  0.23345000  0.06838569    -0.06070
C689        C  0.75846543  0.20570634  0.08376995    -0.33040
C690        C  0.77777173  0.18161024  0.10035581     0.36020
H691        H  0.85632637  0.21443925  0.08277261     0.16390
O692        O  0.82482133  0.26261220  0.05146111    -0.60540
H693        H  0.73107784  0.20252051  0.08282620     0.16400
O694        O  0.76103980  0.15520854  0.11540252    -0.60630
H695        H  0.74236962  0.16530224  0.12885647     0.43400
H696        H  0.82706183  0.28107068  0.06823332     0.43350
C697        C  0.06671719  0.23807423  0.23040970    -0.05710
C698        C  0.06067826  0.23470358  0.19593927    -0.33140
C699        C  0.08085549  0.21320965  0.17667976     0.36110
C700        C  0.10789642  0.19578285  0.19197365    -0.06070
C701        C  0.11466237  0.20059703  0.22634743    -0.33040
C702        C  0.09386429  0.22123031  0.24569018     0.36020
H703        H  0.03926196  0.24739827  0.18437168     0.16390
O704        O  0.07330430  0.20854960  0.14334004    -0.60540
H705        H  0.13593292  0.18808135  0.23832589     0.16400
O706        O  0.09974471  0.22424654  0.27955739    -0.60630
H707        H  0.11282480  0.24554726  0.28219076     0.43400
H708        H  0.05839213  0.18831631  0.14262579     0.43350
C709        C  0.93136933  0.22668448  0.23853387    -0.05710
C710        C  0.94390393  0.19510590  0.22860833    -0.33140
C711        C  0.92518695  0.17498563  0.20667619     0.36110
C712        C  0.89363698  0.18657357  0.19497722    -0.06070
C713        C  0.88078810  0.21791405  0.20578965    -0.33040
C714        C  0.89968796  0.23812296  0.22744527     0.36020
H715        H  0.96875196  0.18669971  0.23689960     0.16390
O716        O  0.93816321  0.14454945  0.19616268    -0.60540
H717        H  0.85616702  0.22670684  0.19727776     0.16400
O718        O  0.88753880  0.26923631  0.23694181    -0.60630
H719        H  0.87706121  0.26564574  0.25932715     0.43400
H720        H  0.95039668  0.14960155  0.17495842     0.43350
C721        C  0.22276196  0.06776469  0.24460319    -0.05710
C722        C  0.23906658  0.09031674  0.22333221    -0.33140
C723        C  0.22093988  0.10753176  0.19907338     0.36110
C724        C  0.18575307  0.10174385  0.19528302    -0.06070
C725        C  0.16909136  0.07989067  0.21778517    -0.33040
C726        C  0.18745809  0.06311350  0.24283592     0.36020
H727        H  0.26634468  0.09409628  0.22509875     0.16390
O728        O  0.23763105  0.13150113  0.18065730    -0.60540
H729        H  0.14184402  0.07618449  0.21618453     0.16400
O730        O  0.17116668  0.04235011  0.26539163    -0.60630
H731        H  0.15628147  0.02713614  0.25208734     0.42920
H732        H  0.25598819  0.11911346  0.16872501     0.43350
C733        C  0.19012678  0.17972049  0.09978254    -0.05710
C734        C  0.17404349  0.20275293  0.07817853    -0.33140
C735        C  0.19289391  0.22625455  0.06002163     0.36110
C736        C  0.22872603  0.22579691  0.06182357    -0.06070
C737        C  0.24480765  0.20033428  0.07999771    -0.33040
C738        C  0.22604537  0.17769967  0.09920843     0.36020
H739        H  0.14655085  0.20397482  0.07691194     0.16390
O740        O  0.17587976  0.24953458  0.04083042    -0.60540
H741        H  0.27229590  0.19849959  0.08042263     0.16400
O742        O  0.24348956  0.15466461  0.11804446    -0.60630
H743        H  0.25845237  0.16815466  0.13305422     0.43400
H744        H  0.17100164  0.26868291  0.05624382     0.43350
C745        C  0.81689558  0.89596852  0.19475044    -0.05710
C746        C  0.80988261  0.88484825  0.22752728    -0.33140
C747        C  0.78826397  0.90342702  0.24830270     0.36110
C748        C  0.77354558  0.93332404  0.23613465    -0.06070
C749        C  0.78129245  0.94466901  0.20357937    -0.33040
C750        C  0.80290869  0.92627802  0.18298912     0.36020
H751        H  0.82017134  0.86111793  0.23653625     0.16390
O752        O  0.78098264  0.89170494  0.27988237    -0.60540
H753        H  0.77078931  0.96811640  0.19406881     0.16400
O754        O  0.80975014  0.93773264  0.15117419    -0.60630
H755        H  0.83099106  0.95109479  0.15332967     0.43400
H756        H  0.76054009  0.87726886  0.27705572     0.43350
C757        C  0.76549795  0.77522615  0.06698320    -0.05710
C758        C  0.76584988  0.81025780  0.06197120    -0.33140
C759        C  0.78894205  0.83053384  0.07944949     0.36110
C760        C  0.81156923  0.81550687  0.10238768    -0.06070
C761        C  0.81046872  0.78036394  0.10764451    -0.33040
C762        C  0.78806097  0.76018696  0.08964981     0.36020
H763        H  0.74928060  0.82166305  0.04342121     0.16390
O764        O  0.79036906  0.86459504  0.07292803    -0.60540
H765        H  0.82671858  0.76843145  0.12610201     0.16400
O766        O  0.78793251  0.72583807  0.09469551    -0.60630
H767        H  0.80671420  0.71695083  0.08057964     0.43400
H768        H  0.76869148  0.87405374  0.08154605     0.43350
C769        C  0.82143570  0.81054513  0.90133971    -0.05710
C770        C  0.81483135  0.77721103  0.89074530    -0.33140
C771        C  0.79311943  0.75645308  0.90917682     0.36110
C772        C  0.77725333  0.76940848  0.93803699    -0.06070
C773        C  0.78484466  0.80225666  0.94923592    -0.33040
C774        C  0.80702258  0.82269084  0.93126667     0.36020
H775        H  0.82525808  0.76774941  0.86733941     0.16390
O776        O  0.78590743  0.72450617  0.89766164    -0.60540
H777        H  0.77354376  0.81216294  0.97207769     0.16400
O778        O  0.81361722  0.85485984  0.94252297    -0.60630
H779        H  0.83483647  0.85294978  0.95582606     0.43400
H780        H  0.80447464  0.71003791  0.90641333     0.43350
C781        C  0.19481578  0.89921534  0.18239271    -0.05710
C782        C  0.18360611  0.93135999  0.19157692    -0.33140
C783        C  0.20354072  0.95140110  0.21244694     0.36110
C784        C  0.23464682  0.93893143  0.22480027    -0.06070
C785        C  0.24668728  0.90742619  0.21433068    -0.33040
C786        C  0.22667231  0.88726104  0.19349225     0.36020
H787        H  0.15903920  0.94048480  0.18325749     0.16390
O788        O  0.19228343  0.98305251  0.22096576    -0.60540
H789        H  0.27070878  0.89783303  0.22362305     0.16400
O790        O  0.23753908  0.85525423  0.18559426    -0.60630
H791        H  0.22717111  0.84032126  0.20278470     0.43400
H792        H  0.20307921  0.99849350  0.20449237     0.43350
C793        C  0.07107210  0.77343163  0.24233842    -0.05710
C794        C  0.06441606  0.80805500  0.23939360    -0.33140
C795        C  0.08308090  0.82772153  0.21692010     0.36110
C796        C  0.10893403  0.81253988  0.19764288    -0.06070
C797        C  0.11639999  0.77802963  0.20202550    -0.33040
C798        C  0.09706204  0.75831600  0.22362364     0.36020
H799        H  0.04347425  0.81939752  0.25308681     0.16390
O800        O  0.07449712  0.86103687  0.21232485    -0.60540
H801        H  0.13704772  0.76614448  0.18839329     0.16400
O802        O  0.10358950  0.72431887  0.22629498    -0.60630
H803        H  0.09075414  0.71357555  0.20765603     0.43400
H804        H  0.08168935  0.87281833  0.23317905     0.43350
C805        C  0.90545671  0.81133478  0.17947730    -0.05710
C806        C  0.89698163  0.77688480  0.18243220    -0.33140
C807        C  0.91486638  0.75591295  0.20417426     0.36110
C808        C  0.94120684  0.76957111  0.22374274    -0.06070
C809        C  0.95092797  0.80350541  0.21936846    -0.33040
C810        C  0.93321071  0.82441796  0.19742045     0.36020
H811        H  0.87516514  0.76655449  0.16934325     0.16390
O812        O  0.90495236  0.72282306  0.20767405    -0.60540
H813        H  0.97213947  0.81405392  0.23327513     0.16400
O814        O  0.94293943  0.85757770  0.19368852    -0.60630
H815        H  0.93839650  0.86859541  0.21565860     0.43400
H816        H  0.91695928  0.71040127  0.18953605     0.43350
C817        C  0.18658964  0.80806804  0.10371079    -0.05710
C818        C  0.22171098  0.80563098  0.10992908    -0.33140
C819        C  0.24162971  0.78278800  0.09233758     0.36110
C820        C  0.22633163  0.76096413  0.06916153    -0.06070
C821        C  0.19120819  0.76209023  0.06366209    -0.33040
C822        C  0.17123166  0.78588845  0.08050453     0.36020
H823        H  0.23394100  0.82133594  0.12865232     0.16390
O824        O  0.27604251  0.78174172  0.09802197    -0.60540
H825        H  0.17961692  0.74588667  0.04487532     0.16400
O826        O  0.13730638  0.78859960  0.07288151    -0.60630
H827        H  0.12675837  0.76717235  0.08059644     0.43400
H828        H  0.28571947  0.80044256  0.08445199     0.43350
C829        C  0.19217034  0.82187901  0.90168152    -0.05710
C830        C  0.17907800  0.80898893  0.93170521    -0.33140
C831        C  0.19822437  0.78680763  0.95094271     0.36110
C832        C  0.23099735  0.77740142  0.94017530    -0.06070
C833        C  0.24491070  0.79176406  0.91119954    -0.33040
C834        C  0.22561801  0.81375578  0.89171208     0.36020
H835        H  0.15339730  0.81510848  0.93951451     0.16390
O836        O  0.18453149  0.77421665  0.98003611    -0.60540
H837        H  0.27019506  0.78480968  0.90288036     0.16400
O838        O  0.23846630  0.82459584  0.86153013    -0.60630
H839        H  0.25482604  0.84281224  0.86729234     0.43400
H840        H  0.19016821  0.79123021  0.99751475     0.43350
C841        C  0.09906710  0.80698543  0.82311367    -0.05710
C842        C  0.11081409  0.77412790  0.81603180    -0.33140
C843        C  0.09304976  0.75331713  0.79388645     0.36110
C844        C  0.06352955  0.76565314  0.77848882    -0.06070
C845        C  0.05101447  0.79785128  0.78685226    -0.33040
C846        C  0.06838881  0.81835319  0.80931057     0.36020
H847        H  0.13478093  0.76530324  0.82615934     0.16390
O848        O  0.10544243  0.72174450  0.78643832    -0.60540
H849        H  0.02764897  0.80724273  0.77585804     0.16400
O850        O  0.05606365  0.85001369  0.81648793    -0.60630
H851        H  0.04236468  0.84718625  0.83721720     0.43400
H852        H  0.11939196  0.72477605  0.76589525     0.43350
C853        C  0.90265975  0.82268415  0.81004815    -0.05710
C854        C  0.93212786  0.80774203  0.82272446    -0.33140
C855        C  0.95032773  0.78482067  0.80333671     0.36110
C856        C  0.93941150  0.77717614  0.77039591    -0.06070
C857        C  0.91099637  0.79347945  0.75699620    -0.33040
C858        C  0.89231048  0.81591701  0.77671967     0.36020
H859        H  0.94022637  0.81281713  0.84827877     0.16390
O860        O  0.97901757  0.77041077  0.81669992    -0.60540
H861        H  0.90250298  0.78782724  0.73169168     0.16400
O862        O  0.86247373  0.82873597  0.76423914    -0.60630
H863        H  0.86936081  0.84691611  0.74849720     0.43400
H864        H  0.97074602  0.75124241  0.83052452     0.43350
C865        C  0.22222743  0.23443582  0.93928729    -0.05710
C866        C  0.21252686  0.20302521  0.95280724    -0.33140
C867        C  0.19044014  0.18190670  0.93539033     0.36110
C868        C  0.17795212  0.19218864  0.90414602    -0.06070
C869        C  0.18667653  0.22413869  0.89117697    -0.33040
C870        C  0.20872383  0.24533679  0.90864321     0.36020
H871        H  0.22227765  0.19474508  0.97690385     0.16390
O872        O  0.18206701  0.15092584  0.94847050    -0.60540
H873        H  0.17770930  0.23194332  0.86665568     0.16400
O874        O  0.21797725  0.27582128  0.89497065    -0.60630
H875        H  0.23926854  0.27122174  0.88240608     0.43400
H876        H  0.16072970  0.15475250  0.96120174     0.43350
C877        C  0.23221433  0.06656139  0.77647653    -0.05710
C878        C  0.19806608  0.05745847  0.78141251    -0.33140
C879        C  0.17791134  0.07487408  0.80415703     0.36110
C880        C  0.19139592  0.10271567  0.82154632    -0.06070
C881        C  0.22583524  0.11137559  0.81746935    -0.33040
C882        C  0.24637759  0.09326910  0.79519040     0.36020
H883        H  0.18691921  0.03634350  0.76791436     0.16390
O884        O  0.14464710  0.06528256  0.80836658    -0.60540
H885        H  0.23640778  0.13316447  0.83031771     0.16400
O886        O  0.27977402  0.10247478  0.79123301    -0.60630
H887        H  0.27998063  0.11817203  0.77182612     0.43400
H888        H  0.14477684  0.04981935  0.82795282     0.43350
C889        C  0.21965628  0.94037063  0.76820980    -0.05710
C890        C  0.20624211  0.91031358  0.75530088    -0.33140
C891        C  0.18560712  0.89000530  0.77535189     0.36110
C892        C  0.17778002  0.90031611  0.80845484    -0.06070
C893        C  0.18991240  0.93114788  0.82069205    -0.33040
C894        C  0.21077607  0.95123489  0.80085106     0.36020
H895        H  0.21309383  0.90177383  0.73029933     0.16390
O896        O  0.17582160  0.85884498  0.76352852    -0.60540
H897        H  0.18411901  0.93910673  0.84614291     0.16400
O898        O  0.22323005  0.98093683  0.81392720    -0.60630
H899        H  0.20324668  0.99600530  0.81638358     0.43400
H900        H  0.15717294  0.86340665  0.74740054     0.43350
C901        C  0.06928216  0.22779523  0.76438091    -0.05710
C902        C  0.06219451  0.19312068  0.76569464    -0.33140
C903        C  0.07870667  0.17268998  0.78907132     0.36110
C904        C  0.10269905  0.18720631  0.81098724    -0.06070
C905        C  0.11041664  0.22185087  0.80860135    -0.33040
C906        C  0.09336562  0.24224981  0.78591477     0.36020
H907        H  0.04257127  0.18227838  0.74985434     0.16390
O908        O  0.07004526  0.13914719  0.79161885    -0.60540
H909        H  0.12978619  0.23322932  0.82432535     0.16400
O910        O  0.10037769  0.27626052  0.78479622    -0.60630
H911        H  0.08670286  0.28646879  0.80314307     0.43400
H912        H  0.07883232  0.12830356  0.77086195     0.43350
C913        C  0.80690197  0.17996461  0.90149701    -0.05710
C914        C  0.81894712  0.19058803  0.93276016    -0.33140
C915        C  0.79887029  0.21109512  0.95304432     0.36110
C916        C  0.76646992  0.22137004  0.94180150    -0.06070
C917        C  0.75371254  0.20940533  0.91131968    -0.33040
C918        C  0.77395622  0.18921607  0.89083289     0.36020
H919        H  0.84430518  0.18376468  0.94094705     0.16390
O920        O  0.81133578  0.22139304  0.98358925    -0.60540
H921        H  0.72880869  0.21716644  0.90261089     0.16400
O922        O  0.76212252  0.18040886  0.85961118    -0.60630
H923        H  0.77100995  0.19801456  0.84419975     0.43400
H924        H  0.80272958  0.20451496  0.99992160     0.43350
C925        C  0.89846733  0.19558256  0.82050235    -0.05710
C926        C  0.88864865  0.22905927  0.81379420    -0.33140
C927        C  0.90852963  0.24946270  0.79305145     0.36110
C928        C  0.93840736  0.23617784  0.77893849    -0.06070
C929        C  0.94885417  0.20322325  0.78689871    -0.33040
C930        C  0.92916462  0.18299319  0.80768015     0.36020
H931        H  0.86470352  0.23876436  0.82321623     0.16390
O932        O  0.89783907  0.28161057  0.78558925    -0.60540
H933        H  0.97227585  0.19299496  0.77672295     0.16400
O934        O  0.93940595  0.15052179  0.81432284    -0.60630
H935        H  0.95165808  0.15190990  0.83605466     0.43400
H936        H  0.88486859  0.27940490  0.76432686     0.43350
C937        C  0.77635228  0.06779092  0.76099319    -0.05710
C938        C  0.81152651  0.06267753  0.76262230    -0.33140
C939        C  0.83115434  0.08122553  0.78540082     0.36110
C940        C  0.81526933  0.10518255  0.80639084    -0.06070
C941        C  0.78017800  0.11099911  0.80337164    -0.33040
C942        C  0.76065473  0.09201867  0.78138354     0.36020
H943        H  0.82340838  0.04305089  0.74762051     0.16390
O944        O  0.86521392  0.07440481  0.78846662    -0.60540
H945        H  0.76762611  0.13017305  0.81828352     0.16400
O946        O  0.72615542  0.09704666  0.78010538    -0.60630
H947        H  0.71686097  0.08450165  0.79961909     0.43400
H948        H  0.87581439  0.08305384  0.76755587     0.43350
C949        C  0.77074056  0.93745794  0.77612163    -0.05710
C950        C  0.80119921  0.95183569  0.78771898    -0.33140
C951        C  0.82142741  0.93451857  0.81057325     0.36110
C952        C  0.81116591  0.90251956  0.82181294    -0.06070
C953        C  0.78029380  0.88852300  0.81076063    -0.33040
C954        C  0.76012332  0.90580382  0.78787345     0.36020
H955        H  0.80926879  0.97655261  0.77902810     0.16390
O956        O  0.85160148  0.94844634  0.82096094    -0.60540
H957        H  0.77272379  0.86334902  0.81852852     0.16400
O958        O  0.73103932  0.89091308  0.77598227    -0.60630
H959        H  0.73780509  0.87953400  0.75477358     0.43400
H960        H  0.84620285  0.96027159  0.84230488     0.43350
C961        C  0.23680572  0.11471308  0.43689070    -0.05710
C962        C  0.27159095  0.10524901  0.43719915    -0.33140
C963        C  0.28522090  0.08190416  0.41391254     0.36110
C964        C  0.26418288  0.06672780  0.38959414    -0.06070
C965        C  0.22950772  0.07633402  0.38905044    -0.33040
C966        C  0.21592033  0.09993911  0.41210002     0.36020
H967        H  0.28863382  0.11596911  0.45575464     0.16390
O968        O  0.31885319  0.07313199  0.41617568    -0.60540
H969        H  0.21260220  0.06549720  0.37042138     0.16400
O970        O  0.18227398  0.10862573  0.40969866    -0.60630
H971        H  0.17001468  0.09186996  0.42371876     0.43400
H972        H  0.33112756  0.09010852  0.40243258     0.43350
C973        C  0.07189791  0.26456371  0.38261894    -0.05710
C974        C  0.07068805  0.23034414  0.39268541    -0.33140
C975        C  0.09466646  0.21677898  0.41512777     0.36110
C976        C  0.12109809  0.23723765  0.42764193    -0.06070
C977        C  0.12218841  0.27155364  0.41747135    -0.33040
C978        C  0.09775119  0.28524548  0.39559088     0.36020
H979        H  0.05082346  0.21393833  0.38310889     0.16390
O980        O  0.09191347  0.18354295  0.42454268    -0.60540
H981        H  0.14196068  0.28818013  0.42681422     0.16400
O982        O  0.10038628  0.31839326  0.38584373    -0.60630
H983        H  0.08734996  0.33137055  0.40285965     0.43400
H984        H  0.10630803  0.17085345  0.40840297     0.43350
C985        C  0.11366086  0.23811021  0.56757568    -0.05710
C986        C  0.09683933  0.26922040  0.56163191    -0.33140
C987        C  0.07472177  0.28380572  0.58552301     0.36110
C988        C  0.06863389  0.26743013  0.61624196    -0.06070
C989        C  0.08551177  0.23647031  0.62231382    -0.33040
C990        C  0.10779739  0.22196330  0.59854605     0.36020
H991        H  0.10068238  0.28239055  0.53808959     0.16390
O992        O  0.05776804  0.31303688  0.57772048    -0.60540
H993        H  0.08131505  0.22329267  0.64580680     0.16400
O994        O  0.12465287  0.19271329  0.60650164    -0.60630
H995        H  0.10906305  0.17416949  0.59979145     0.43400
H996        H  0.07291596  0.33158462  0.58534701     0.43350
C997        C  0.23296283  0.12242694  0.57837866    -0.05710
C998        C  0.23058391  0.08769187  0.57132886    -0.33140
C999        C  0.24651433  0.06367309  0.59213643     0.36110
C1000       C  0.26487807  0.07399164  0.62082068    -0.06070
C1001       C  0.26646324  0.10858021  0.62844758    -0.33040
C1002       C  0.25131284  0.13269665  0.60726862     0.36020
H1003       H  0.21730919  0.07915748  0.54901215     0.16390
O1004       O  0.24321113  0.02998728  0.58472453    -0.60540
H1005       H  0.27919737  0.11692562  0.65114526     0.16400
O1006       O  0.25378825  0.16632216  0.61554933    -0.60630
H1007       H  0.27685109  0.17331784  0.60822814     0.43400
H1008       H  0.25972597  0.02584552  0.56633940     0.43350
C1009       C  0.26225061  0.27819378  0.56843900    -0.05710
C1010       C  0.27256184  0.26659608  0.59983725    -0.33140
C1011       C  0.29526922  0.28558632  0.61881139     0.36110
C1012       C  0.30881856  0.31588100  0.60557564    -0.06070
C1013       C  0.29742567  0.32801051  0.57455531    -0.33040
C1014       C  0.27407823  0.30925121  0.55591553     0.36020
H1015       H  0.26350258  0.24251641  0.60928543     0.16390
O1016       O  0.30425284  0.27424103  0.65013959    -0.60540
H1017       H  0.30719202  0.35158122  0.56457576     0.16400
O1018       O  0.26464942  0.32028394  0.52461940    -0.60630
H1019       H  0.24249282  0.33175173  0.52798084     0.43400
H1020       H  0.28945137  0.28682016  0.66600585     0.43350
C1021       C  0.27890128  0.26311366  0.43886482    -0.05710
C1022       C  0.30511898  0.28211031  0.45351571    -0.33140
C1023       C  0.32415453  0.30434893  0.43394153     0.36110
C1024       C  0.31655058  0.30750339  0.39973553    -0.06070
C1025       C  0.29089445  0.28774309  0.38500859    -0.33040
C1026       C  0.27200885  0.26548789  0.40449912     0.36020
H1027       H  0.30998977  0.28045834  0.48027394     0.16390
O1028       O  0.34947641  0.32329153  0.44838353    -0.60540
H1029       H  0.28521700  0.29011304  0.35845907     0.16400
O1030       O  0.24572801  0.24767016  0.39028144    -0.60630
H1031       H  0.25536814  0.22514446  0.38482513     0.43400
H1032       H  0.33820747  0.34437448  0.45605585     0.43350
C1033       C  0.38543424  0.06728896  0.73705392    -0.05710
C1034       C  0.40822573  0.05683306  0.76246471    -0.33140
C1035       C  0.42985887  0.07991976  0.77897839     0.36110
C1036       C  0.42896157  0.11440422  0.77062094    -0.06070
C1037       C  0.40624550  0.12491958  0.74521240    -0.33040
C1038       C  0.38453733  0.10182865  0.72870281     0.36020
H1039       H  0.40921845  0.03041580  0.76962980     0.16390
O1040       O  0.45310758  0.06817304  0.80179387    -0.60540
H1041       H  0.40560036  0.15130413  0.73788769     0.16400
O1042       O  0.36139777  0.11359487  0.70578773    -0.60630
H1043       H  0.37328606  0.11269923  0.68383148     0.43400
H1044       H  0.44158009  0.06979515  0.82389771     0.43350
C1045       C  0.56770808  0.23645551  0.88698974    -0.05710
C1046       C  0.56705212  0.27117453  0.89618825    -0.33140
C1047       C  0.59082119  0.28531679  0.91875727     0.36110
C1048       C  0.61603284  0.26489609  0.93329995    -0.06070
C1049       C  0.61708070  0.23034944  0.92374888    -0.33040
C1050       C  0.59347003  0.21622707  0.90100837     0.36020
H1051       H  0.54773872  0.28774042  0.88599231     0.16390
O1052       O  0.58805183  0.31875570  0.92753862    -0.60540
H1053       H  0.63639423  0.21389677  0.93415542     0.16400
O1054       O  0.59617072  0.18270042  0.89253722    -0.60630
H1055       H  0.58262613  0.17046098  0.90966891     0.43400
H1056       H  0.60168208  0.33115774  0.91059079     0.43350
C1057       C  0.62175851  0.07351055  0.74104173    -0.05710
C1058       C  0.59497785  0.08450012  0.72050780    -0.33140
C1059       C  0.57047172  0.10734901  0.73265153     0.36110
C1060       C  0.57193900  0.11945343  0.76611140    -0.06070
C1061       C  0.59806644  0.10803918  0.78695709    -0.33040
C1062       C  0.62283551  0.08550916  0.77480538     0.36020
H1063       H  0.59290778  0.07534473  0.69491429     0.16390
O1064       O  0.54426134  0.11670249  0.71192951    -0.60540
H1065       H  0.59967597  0.11708295  0.81263300     0.16400
O1066       O  0.64797966  0.07546207  0.79643583    -0.60630
H1067       H  0.63873751  0.05525723  0.80802220     0.43400
H1068       H  0.55353803  0.13523439  0.69788281     0.43350
C1069       C  0.42532240  0.23115952  0.88509647    -0.05710
C1070       C  0.43720874  0.24658704  0.91472352    -0.33140
C1071       C  0.41470863  0.26327078  0.93674357     0.36110
C1072       C  0.37964228  0.26432153  0.92953571    -0.06070
C1073       C  0.36785704  0.24861939  0.89997579    -0.33040
C1074       C  0.39041337  0.23273135  0.87763489     0.36020
H1075       H  0.46418154  0.24657300  0.92027888     0.16390
O1076       O  0.42702343  0.27703261  0.96596683    -0.60540
H1077       H  0.34093369  0.24868905  0.89419315     0.16400
O1078       O  0.37818239  0.21936298  0.84818952    -0.60630
H1079       H  0.37447659  0.19501218  0.85290041     0.43400
H1080       H  0.43285689  0.30074843  0.96027677     0.43350
C1081       C  0.55923714  0.27660038  0.73805869    -0.05710
C1082       C  0.54736713  0.28536524  0.70599438    -0.33140
C1083       C  0.56617314  0.30673778  0.68557334     0.36110
C1084       C  0.59741781  0.31924248  0.69708005    -0.06070
C1085       C  0.60875576  0.31150292  0.72967419    -0.33040
C1086       C  0.58972880  0.29026195  0.75027318     0.36020
H1087       H  0.52345796  0.27547110  0.69667514     0.16390
O1088       O  0.55442482  0.31440705  0.65404783    -0.60540
H1089       H  0.63316684  0.32059931  0.73852914     0.16400
O1090       O  0.60176902  0.28191722  0.78152648    -0.60630
H1091       H  0.61449773  0.26050750  0.77827036     0.43400
H1092       H  0.54216397  0.33616276  0.65667338     0.43350
C1093       C  0.42991609  0.26324032  0.73013431    -0.05710
C1094       C  0.40535303  0.28419258  0.74444268    -0.33140
C1095       C  0.38791819  0.30734003  0.72464644     0.36110
C1096       C  0.39615424  0.31048742  0.69019041    -0.06070
C1097       C  0.42065088  0.28902822  0.67595039    -0.33040
C1098       C  0.43718323  0.26509963  0.69565819     0.36020
H1099       H  0.39981764  0.28266854  0.77109290     0.16390
O1100       O  0.36171534  0.32537569  0.73877547    -0.60540
H1101       H  0.42690964  0.29083209  0.64949412     0.16400
O1102       O  0.46188280  0.24515117  0.68151082    -0.60630
H1103       H  0.44998810  0.22415864  0.67451833     0.43400
H1104       H  0.37262263  0.34179053  0.75429414     0.43350
C1105       C  0.76321236  0.56748552  0.88860167    -0.05710
C1106       C  0.73308080  0.56061220  0.90689891    -0.33140
C1107       C  0.71814014  0.58483366  0.92834486     0.36110
C1108       C  0.73313941  0.61686018  0.93216476    -0.06070
C1109       C  0.76315194  0.62383338  0.91382042    -0.33040
C1110       C  0.77803603  0.59968019  0.89224657     0.36020
H1111       H  0.72095901  0.53608390  0.90467500     0.16390
O1112       O  0.69007730  0.57617416  0.94688044    -0.60540
H1113       H  0.77533984  0.64829661  0.91640121     0.16400
O1114       O  0.80614680  0.60841499  0.87380979    -0.60630
H1115       H  0.82583396  0.60309154  0.88841745     0.43400
H1116       H  0.67035081  0.58217649  0.93258991     0.43350
C1117       C  0.88033741  0.57193078  0.76770105    -0.05710
C1118       C  0.89749466  0.56526611  0.73734628    -0.33140
C1119       C  0.91999226  0.58895716  0.72323483     0.36110
C1120       C  0.92538029  0.62036148  0.73922535    -0.06070
C1121       C  0.90770328  0.62695467  0.76955517    -0.33040
C1122       C  0.88559231  0.60304004  0.78378991     0.36020
H1123       H  0.89331969  0.54144596  0.72443917     0.16390
O1124       O  0.93716685  0.58066067  0.69438776    -0.60540
H1125       H  0.91108336  0.65081522  0.78257102     0.16400
O1126       O  0.86799543  0.61102057  0.81248235    -0.60630
H1127       H  0.88202791  0.60212459  0.83116891     0.43400
H1128       H  0.92213976  0.58799382  0.67578114     0.43350
C1129       C  0.88256648  0.43044490  0.76738738    -0.05710
C1130       C  0.88152393  0.42098732  0.73301334    -0.33140
C1131       C  0.90544812  0.39863632  0.71878224     0.36110
C1132       C  0.93143268  0.38481832  0.73874429    -0.06070
C1133       C  0.93208386  0.39384799  0.77328997    -0.33040
C1134       C  0.90805282  0.41610904  0.78753244     0.36020
H1135       H  0.86201137  0.43120505  0.71673817     0.16390
O1136       O  0.90284241  0.39034959  0.68541140    -0.60540
H1137       H  0.95156881  0.38373857  0.78964598     0.16400
O1138       O  0.91075479  0.42472326  0.82081150    -0.60630
H1139       H  0.89725004  0.40746265  0.83299624     0.43400
H1140       H  0.91621594  0.40783700  0.67340378     0.43350
C1141       C  0.76233060  0.42724214  0.88234439    -0.05710
C1142       C  0.78466681  0.40389177  0.89659486    -0.33140
C1143       C  0.77286490  0.37953829  0.91944640     0.36110
C1144       C  0.73807101  0.37866482  0.92928799    -0.06070
C1145       C  0.71601244  0.40287672  0.91573008    -0.33040
C1146       C  0.72774798  0.42669984  0.89226266     0.36020
H1147       H  0.81125881  0.40402646  0.88946262     0.16390
O1148       O  0.79600420  0.35734084  0.93273262    -0.60540
H1149       H  0.68950554  0.40325195  0.92312747     0.16400
O1150       O  0.70539518  0.45032151  0.88011114    -0.60630
H1151       H  0.69307578  0.43879204  0.86160218     0.43400
H1152       H  0.79772491  0.33871561  0.91607572     0.43350
C1153       C  0.72577860  0.56912946  0.74055898    -0.05710
C1154       C  0.74216426  0.59063074  0.71806955    -0.33140
C1155       C  0.72355584  0.60880963  0.69470095     0.36110
C1156       C  0.68787705  0.60504865  0.69329469    -0.06070
C1157       C  0.67149051  0.58362883  0.71631273    -0.33040
C1158       C  0.69026382  0.56592834  0.74016769     0.36020
H1159       H  0.76964728  0.59292442  0.71831587     0.16390
O1160       O  0.74040404  0.63136537  0.67459037    -0.60540
H1161       H  0.64410911  0.58063169  0.71573587     0.16400
O1162       O  0.67400181  0.54391301  0.76138594    -0.60630
H1163       H  0.66900822  0.55730371  0.78189986     0.43400
H1164       H  0.75329728  0.61736936  0.65824877     0.43350
C1165       C  0.68914449  0.40072438  0.68338047    -0.05710
C1166       C  0.72307400  0.39109943  0.68891546    -0.33140
C1167       C  0.74379759  0.41002915  0.71013459     0.36110
C1168       C  0.73038075  0.43871196  0.72617694    -0.06070
C1169       C  0.69699319  0.44916614  0.71939909    -0.33040
C1170       C  0.67646054  0.43050913  0.69791525     0.36020
H1171       H  0.73299587  0.36786911  0.67825501     0.16390
O1172       O  0.77651101  0.39956582  0.71601559    -0.60540
H1173       H  0.68670064  0.47183107  0.73091869     0.16400
O1174       O  0.64366453  0.44081503  0.69226864    -0.60630
H1175       H  0.64459872  0.45394806  0.67108812     0.43400
H1176       H  0.77518670  0.38531787  0.73645847     0.43350
C1177       C  0.57383955  0.76637299  0.88213245    -0.05710
C1178       C  0.59524445  0.73896140  0.87336311    -0.33140
C1179       C  0.61720138  0.72401779  0.89683061     0.36110
C1180       C  0.61840502  0.73627929  0.92985743    -0.06070
C1181       C  0.59750855  0.76378089  0.93879831    -0.33040
C1182       C  0.57524785  0.77867245  0.91539310     0.36020
H1183       H  0.59491914  0.72879351  0.84806417     0.16390
O1184       O  0.63834760  0.69832659  0.88684253    -0.60540
H1185       H  0.59871143  0.77396338  0.96408178     0.16400
O1186       O  0.55429854  0.80438921  0.92568369    -0.60630
H1187       H  0.56758545  0.82540431  0.92209654     0.43400
H1188       H  0.62606619  0.67719418  0.89258322     0.43350
C1189       C  0.56582821  0.88858692  0.76751085    -0.05710
C1190       C  0.59834608  0.89144388  0.78152830    -0.33140
C1191       C  0.62322342  0.91236072  0.76670310     0.36110
C1192       C  0.61611483  0.93133915  0.73728886    -0.06070
C1193       C  0.58355160  0.92864341  0.72331879    -0.33040
C1194       C  0.55857941  0.90786397  0.73820111     0.36020
H1195       H  0.60493323  0.87659019  0.80342148     0.16390
O1196       O  0.65489027  0.91362208  0.78095601    -0.60540
H1197       H  0.57703520  0.94355017  0.70144117     0.16400
O1198       O  0.52688809  0.90679269  0.72384197    -0.60630
H1199       H  0.51280021  0.92254228  0.73738202     0.43400
H1200       H  0.66680382  0.89347981  0.77193760     0.43350
C1201       C  0.43215289  0.76766923  0.88945250    -0.05710
C1202       C  0.39715133  0.77317473  0.88545510    -0.33140
C1203       C  0.37330261  0.75651098  0.90614739     0.36110
C1204       C  0.38403226  0.73369112  0.93140291    -0.06070
C1205       C  0.41901106  0.72835954  0.93553071    -0.33040
C1206       C  0.44285774  0.74504161  0.91492587     0.36020
H1207       H  0.38820055  0.78961014  0.86559338     0.16390
O1208       O  0.33935008  0.76294351  0.90167268    -0.60540
H1209       H  0.42795309  0.71208787  0.95553134     0.16400
O1210       O  0.47683095  0.73902058  0.91990863    -0.60630
H1211       H  0.48504849  0.75834844  0.93362170     0.43400
H1212       H  0.33084613  0.74407726  0.88750870     0.43350
C1213       C  0.42570369  0.88133935  0.76618033    -0.05710
C1214       C  0.42119536  0.88513621  0.73114611    -0.33140
C1215       C  0.39802388  0.90857429  0.71785879     0.36110
C1216       C  0.37793194  0.92822086  0.73955336    -0.06070
C1217       C  0.38259789  0.92465014  0.77458382    -0.33040
C1218       C  0.40653383  0.90192298  0.78787114     0.36020
H1219       H  0.43598267  0.86996609  0.71377810     0.16390
O1220       O  0.39427786  0.91100646  0.68369593    -0.60540
H1221       H  0.36777845  0.93986515  0.79188658     0.16400
O1222       O  0.40996350  0.89916879  0.82203879    -0.60630
H1223       H  0.42679720  0.91674794  0.82838112     0.43400
H1224       H  0.41193229  0.92735042  0.67641080     0.43350
C1225       C  0.43714603  0.72358062  0.73694007    -0.05710
C1226       C  0.44885510  0.71688571  0.70419112    -0.33140
C1227       C  0.43097951  0.69534564  0.68303387     0.36110
C1228       C  0.40102843  0.68017629  0.69453893    -0.06070
C1229       C  0.38999130  0.68562232  0.72774429    -0.33040
C1230       C  0.40793411  0.70727792  0.74902449     0.36020
H1231       H  0.47186035  0.72866331  0.69478377     0.16390
O1232       O  0.44220243  0.69023542  0.65078020    -0.60540
H1233       H  0.36649833  0.67443453  0.73660394     0.16400
O1234       O  0.39601143  0.71334796  0.78087109    -0.60630
H1235       H  0.38159868  0.73382399  0.77888586     0.43400
H1236       H  0.45624797  0.66944267  0.65180664     0.43350
C1237       C  0.56350659  0.73433856  0.72814152    -0.05710
C1238       C  0.58896628  0.74954949  0.70875364    -0.33140
C1239       C  0.60902407  0.72997380  0.68730060     0.36110
C1240       C  0.60310807  0.69484263  0.68482150    -0.06070
C1241       C  0.57667500  0.68005371  0.70304198    -0.33040
C1242       C  0.55725688  0.69926243  0.72493424     0.36020
H1243       H  0.59399804  0.77642232  0.71094407     0.16390
O1244       O  0.63579881  0.74490670  0.67091683    -0.60540
H1245       H  0.57181907  0.65311024  0.70114004     0.16400
O1246       O  0.53190496  0.68341403  0.74265865    -0.60630
H1247       H  0.54329026  0.67361559  0.76263421     0.43400
H1248       H  0.62543189  0.75811512  0.65240289     0.43350
C1249       C  0.12181240  0.42520593  0.76595365    -0.05710
C1250       C  0.13261762  0.39783319  0.74584984    -0.33140
C1251       C  0.10914850  0.37643317  0.72990145     0.36110
C1252       C  0.07412777  0.38246022  0.73313360    -0.06070
C1253       C  0.06312034  0.40963149  0.75321919    -0.33040
C1254       C  0.08660590  0.43086926  0.76962325     0.36020
H1255       H  0.15950911  0.39303417  0.74239217     0.16390
O1256       O  0.12067951  0.34911573  0.71192119    -0.60540
H1257       H  0.03614674  0.41384869  0.75689581     0.16400
O1258       O  0.07486257  0.45787043  0.78792415    -0.60630
H1259       H  0.07153988  0.44904519  0.81099970     0.43400
H1260       H  0.12159782  0.35689436  0.68826400     0.43350
C1261       C  0.06959899  0.61471225  0.73408715    -0.05710
C1262       C  0.08956669  0.62292081  0.76249271    -0.33140
C1263       C  0.11165050  0.59918630  0.77743787     0.36110
C1264       C  0.11408459  0.56613656  0.76438764    -0.06070
C1265       C  0.09411097  0.55802255  0.73587262    -0.33040
C1266       C  0.07214905  0.58182118  0.72087506     0.36020
H1267       H  0.08783226  0.64802008  0.77336858     0.16390
O1268       O  0.13176092  0.60909535  0.80381868    -0.60540
H1269       H  0.09534539  0.53282948  0.72516350     0.16400
O1270       O  0.05180672  0.57197489  0.69464970    -0.60630
H1271       H  0.06514343  0.57704879  0.67412204     0.43400
H1272       H  0.11777629  0.60523803  0.82418912     0.43350
C1273       C  0.23490493  0.57414708  0.88057259    -0.05710
C1274       C  0.26007745  0.56394220  0.90350622    -0.33140
C1275       C  0.27513479  0.58720576  0.92581642     0.36110
C1276       C  0.26542889  0.62153264  0.92513467    -0.06070
C1277       C  0.24053816  0.63160110  0.90157556    -0.33040
C1278       C  0.22546475  0.60830259  0.87948763     0.36020
H1279       H  0.26834963  0.53779447  0.90384921     0.16390
O1280       O  0.29900802  0.57598839  0.94826509    -0.60540
H1281       H  0.23247112  0.65776984  0.90034796     0.16400
O1282       O  0.20233669  0.61938327  0.85620974    -0.60630
H1283       H  0.17977339  0.61574683  0.86673291     0.43400
H1284       H  0.28591433  0.56892568  0.96837114     0.43350
C1285       C  0.23872507  0.43378948  0.88416225    -0.05710
C1286       C  0.27364364  0.43406472  0.89326825    -0.33140
C1287       C  0.28750828  0.41040288  0.91600318     0.36110
C1288       C  0.26659422  0.38569436  0.93072408    -0.06070
C1289       C  0.23185912  0.38508069  0.92117723    -0.33040
C1290       C  0.21801538  0.40860540  0.89843960     0.36020
H1291       H  0.29056118  0.45296091  0.88285056     0.16390
O1292       O  0.32117057  0.41268872  0.92461664    -0.60540
H1293       H  0.21494120  0.36618055  0.93161620     0.16400
O1294       O  0.18425781  0.40631976  0.89015954    -0.60630
H1295       H  0.17220931  0.42002060  0.90733255     0.43400
H1296       H  0.33332685  0.39859149  0.90784218     0.43350
C1297       C  0.27803358  0.43702772  0.73513167    -0.05710
C1298       C  0.31205217  0.44632971  0.73040911    -0.33140
C1299       C  0.33204063  0.42933569  0.70674211     0.36110
C1300       C  0.31772893  0.40275461  0.68785447    -0.06070
C1301       C  0.28369681  0.39328445  0.69343821    -0.33040
C1302       C  0.26374367  0.41064792  0.71640473     0.36020
H1303       H  0.32263501  0.46766081  0.74401760     0.16390
O1304       O  0.36489271  0.43964366  0.70118627    -0.60540
H1305       H  0.27252686  0.37195142  0.68032249     0.16400
O1306       O  0.23036424  0.40146623  0.72076594    -0.60630
H1307       H  0.21770638  0.41322713  0.70268492     0.43400
H1308       H  0.37749904  0.43400106  0.72201574     0.43350
C1309       C  0.31072564  0.60052174  0.68496259    -0.05710
C1310       C  0.30503701  0.61066809  0.71838596    -0.33140
C1311       C  0.28125252  0.59416943  0.73811326     0.36110
C1312       C  0.26195995  0.56796191  0.72416443    -0.06070
C1313       C  0.26640466  0.55844553  0.69052403    -0.33040
C1314       C  0.29080168  0.57464776  0.67076040     0.36020
H1315       H  0.31901024  0.63159540  0.72931325     0.16390
O1316       O  0.27706329  0.60359810  0.77108304    -0.60540
H1317       H  0.25232615  0.53725307  0.68019446     0.16400
O1318       O  0.29625512  0.56403507  0.63834909    -0.60630
H1319       H  0.27580214  0.57112111  0.62561368     0.43400
H1320       H  0.29543031  0.59189840  0.78355435     0.43350
C1321       C  0.11524732  0.43246668  0.23773570    -0.05710
C1322       C  0.10664002  0.43281998  0.27238931    -0.33140
C1323       C  0.08383269  0.40931751  0.28649815     0.36110
C1324       C  0.06838851  0.38467667  0.26613009    -0.06070
C1325       C  0.07721638  0.38396355  0.23158934    -0.33040
C1326       C  0.10026406  0.40734590  0.21748059     0.36020
H1327       H  0.11754004  0.45166418  0.28899388     0.16390
O1328       O  0.07574166  0.41176535  0.31992898    -0.60540
H1329       H  0.06606138  0.36507839  0.21518085     0.16400
O1330       O  0.10818092  0.40498280  0.18400824    -0.60630
H1331       H  0.09089736  0.41894044  0.17236372     0.43400
H1332       H  0.09298349  0.39785574  0.33169202     0.43350
C1333       C  0.23582523  0.42752166  0.12152468    -0.05710
C1334       C  0.26413263  0.40681101  0.12905059    -0.33140
C1335       C  0.27816573  0.38477599  0.10503510     0.36110
C1336       C  0.26395878  0.38278503  0.07279720    -0.06070
C1337       C  0.23551635  0.40293732  0.06520233    -0.33040
C1338       C  0.22160049  0.42528684  0.08906822     0.36020
H1339       H  0.27568254  0.40775062  0.15374225     0.16390
O1340       O  0.30477266  0.36422542  0.11382023    -0.60540
H1341       H  0.22399171  0.40127946  0.04051718     0.16400
O1342       O  0.19495941  0.44561438  0.07990319    -0.60630
H1343       H  0.17424721  0.43213881  0.08468948     0.43400
H1344       H  0.32551015  0.37679779  0.10711484     0.43350
C1345       C  0.23272812  0.57084849  0.11677621    -0.05710
C1346       C  0.22239593  0.56914607  0.08311435    -0.33140
C1347       C  0.23766850  0.58977582  0.05843645     0.36110
C1348       C  0.26378185  0.61309299  0.06696099    -0.06070
C1349       C  0.27410720  0.61475433  0.10070606    -0.33040
C1350       C  0.25887357  0.59400348  0.12535316     0.36020
H1351       H  0.20331520  0.55083636  0.07564044     0.16390
O1352       O  0.22711621  0.58656086  0.02574153    -0.60540
H1353       H  0.29348370  0.63274970  0.10817849     0.16400
O1354       O  0.26995847  0.59639272  0.15794830    -0.60630
H1355       H  0.25322276  0.61122079  0.16939935     0.43400
H1356       H  0.24191017  0.56881320  0.01589009     0.43350
C1357       C  0.11914596  0.57287423  0.23912977    -0.05710
C1358       C  0.11784097  0.57969634  0.27406364    -0.33140
C1359       C  0.09384569  0.60208817  0.28782385     0.36110
C1360       C  0.07097732  0.61886656  0.26665315    -0.06070
C1361       C  0.07186334  0.61172977  0.23185377    -0.33040
C1362       C  0.09540434  0.58885181  0.21813677     0.36020
H1363       H  0.13551337  0.56748383  0.29101381     0.16390
O1364       O  0.09419766  0.60866529  0.32166349    -0.60540
H1365       H  0.05416745  0.62414845  0.21505825     0.16400
O1366       O  0.09518436  0.58274840  0.18420661    -0.60630
H1367       H  0.11150611  0.59922600  0.17457229     0.43400
H1368       H  0.07900558  0.59140197  0.33172420     0.43350
C1369       C  0.27323316  0.56911722  0.26608599    -0.05710
C1370       C  0.25683154  0.59317994  0.28598015    -0.33140
C1371       C  0.27527342  0.61248220  0.30882714     0.36110
C1372       C  0.31051178  0.60677950  0.31259335    -0.06070
C1373       C  0.32676631  0.58246880  0.29244601    -0.33040
C1374       C  0.30835524  0.56397618  0.26888174     0.36020
H1375       H  0.22961164  0.59692454  0.28379498     0.16390
O1376       O  0.25903998  0.63804551  0.32583841    -0.60540
H1377       H  0.35383185  0.57800010  0.29488570     0.16400
O1378       O  0.32444289  0.53960779  0.25014129    -0.60630
H1379       H  0.33092819  0.55102253  0.22891606     0.43400
H1380       H  0.24402993  0.62662810  0.34234795     0.43350
C1381       C  0.26649623  0.43650421  0.27533222    -0.05710
C1382       C  0.29695847  0.44924766  0.28859131    -0.33140
C1383       C  0.31649374  0.42960536  0.31006362     0.36110
C1384       C  0.30563805  0.39686864  0.31809104    -0.06070
C1385       C  0.27476775  0.38432650  0.30549193    -0.33040
C1386       C  0.25508561  0.40407239  0.28407580     0.36020
H1387       H  0.30554518  0.47452580  0.28230785     0.16390
O1388       O  0.34650297  0.44216730  0.32244765    -0.60540
H1389       H  0.26669506  0.35875630  0.31123789     0.16400
O1390       O  0.22557830  0.39111455  0.27089683    -0.60630
H1391       H  0.23208443  0.38155685  0.24874298     0.43400
H1392       H  0.34064878  0.45195580  0.34467461     0.43350
C1393       C  0.38052675  0.73659511  0.07305463    -0.05710
C1394       C  0.38952265  0.77117913  0.07307464    -0.33140
C1395       C  0.41227371  0.78462142  0.09680251     0.36110
C1396       C  0.42631629  0.76360592  0.12167656    -0.06070
C1397       C  0.41725217  0.72892924  0.12157350    -0.33040
C1398       C  0.39495979  0.71540262  0.09740142     0.36020
H1399       H  0.37887560  0.78800235  0.05437063     0.16390
O1400       O  0.42047014  0.81831152  0.09534568    -0.60540
H1401       H  0.42775353  0.71194453  0.14019216     0.16400
O1402       O  0.38628992  0.68183299  0.09881718    -0.60630
H1403       H  0.40379989  0.66998748  0.08527250     0.43400
H1404       H  0.40392779  0.82974156  0.11035966     0.43350
C1405       C  0.61472742  0.73938312  0.06898879    -0.05710
C1406       C  0.60419775  0.71955779  0.09623661    -0.33140
C1407       C  0.58166157  0.73246420  0.12068932     0.36110
C1408       C  0.56911653  0.76616008  0.11872796    -0.06070
C1409       C  0.57994433  0.78614684  0.09182091    -0.33040
C1410       C  0.60217599  0.77320824  0.06717954     0.36020
H1411       H  0.61357789  0.69393499  0.09879802     0.16390
O1412       O  0.57274782  0.71199083  0.14704530    -0.60540
H1413       H  0.57038964  0.81171055  0.08926290     0.16400
O1414       O  0.61059647  0.79387042  0.04080252    -0.60630
H1415       H  0.62968608  0.80800287  0.04911091     0.43400
H1416       H  0.55465122  0.69695107  0.13815873     0.43350
C1417       C  0.56972248  0.88547696  0.23547363    -0.05710
C1418       C  0.60377885  0.88347091  0.22557713    -0.33140
C1419       C  0.62840600  0.90467396  0.24015372     0.36110
C1420       C  0.61921618  0.92871918  0.26511041    -0.06070
C1421       C  0.58507385  0.93027163  0.27529305    -0.33040
C1422       C  0.56051740  0.90889599  0.26072820     0.36020
H1423       H  0.61148716  0.86475240  0.20716339     0.16390
O1424       O  0.66154884  0.90146473  0.22986791    -0.60540
H1425       H  0.57722825  0.94860696  0.29401811     0.16400
O1426       O  0.52752328  0.91065334  0.27177378    -0.60630
H1427       H  0.51597039  0.92622350  0.25596795     0.43400
H1428       H  0.67252876  0.88692535  0.24699400     0.43350
C1429       C  0.42688065  0.88755388  0.23114029    -0.05710
C1430       C  0.40059401  0.87632002  0.25251217    -0.33140
C1431       C  0.37923740  0.89933549  0.26953606     0.36110
C1432       C  0.38405712  0.93441962  0.26576777    -0.06070
C1433       C  0.41020185  0.94559714  0.24416288    -0.33040
C1434       C  0.43169445  0.92260039  0.22738160     0.36020
H1435       H  0.39708011  0.84943898  0.25656998     0.16390
O1436       O  0.35281725  0.88724166  0.28852891    -0.60540
H1437       H  0.41414463  0.97245022  0.24044880     0.16400
O1438       O  0.45857692  0.93467824  0.20901789    -0.60630
H1439       H  0.45010570  0.93605065  0.18560325     0.43400
H1440       H  0.36228569  0.88445412  0.31143935     0.43350
C1441       C  0.59583540  0.68418095  0.31211956    -0.05710
C1442       C  0.60312437  0.68546312  0.27754543    -0.33140
C1443       C  0.58606562  0.70797098  0.25669571     0.36110
C1444       C  0.56239156  0.73056303  0.27067356    -0.06070
C1445       C  0.55525861  0.72927427  0.30522822    -0.33040
C1446       C  0.57090086  0.70558293  0.32571459     0.36020
H1447       H  0.62305053  0.66997271  0.26674272     0.16390
O1448       O  0.59376711  0.70858834  0.22308801    -0.60540
H1449       H  0.53656305  0.74595381  0.31644899     0.16400
O1450       O  0.56146878  0.70308472  0.35888551    -0.60630
H1451       H  0.56671128  0.72535318  0.36922543     0.43400
H1452       H  0.58063951  0.68963600  0.21310605     0.43350
C1453       C  0.39522019  0.69503215  0.31729135    -0.05710
C1454       C  0.43041624  0.69205251  0.31782886    -0.33140
C1455       C  0.44994644  0.71287612  0.29749777     0.36110
C1456       C  0.43415507  0.73758484  0.27745957    -0.06070
C1457       C  0.39891043  0.74133879  0.27772024    -0.33040
C1458       C  0.37922409  0.71960873  0.29716752     0.36020
H1459       H  0.44259331  0.67303164  0.33326248     0.16390
O1460       O  0.48451020  0.70899443  0.29734479    -0.60540
H1461       H  0.38673101  0.76000464  0.26186823     0.16400
O1462       O  0.34445217  0.72209551  0.29608288    -0.60630
H1463       H  0.33728742  0.70673762  0.27765261     0.43400
H1464       H  0.48907969  0.69070876  0.28085387     0.43350
C1465       C  0.73603316  0.38643777  0.06984890    -0.05710
C1466       C  0.71576074  0.39647304  0.09711832    -0.33140
C1467       C  0.72819810  0.41906468  0.12178730     0.36110
C1468       C  0.76179239  0.43227168  0.11996458    -0.06070
C1469       C  0.78219482  0.42201869  0.09299704    -0.33040
C1470       C  0.76975568  0.39967582  0.06819569     0.36020
H1471       H  0.69022704  0.38650260  0.09962776     0.16390
O1472       O  0.70748549  0.42721789  0.14833578    -0.60540
H1473       H  0.80770552  0.43207827  0.09054618     0.16400
O1474       O  0.79075913  0.39183383  0.04178118    -0.60630
H1475       H  0.80560946  0.37341178  0.05013428     0.43400
H1476       H  0.69208742  0.44506955  0.13974457     0.43350
C1477       C  0.76090732  0.57469950  0.12331066    -0.05710
C1478       C  0.78383559  0.59015836  0.10119076    -0.33140
C1479       C  0.77257319  0.61366179  0.07712195     0.36110
C1480       C  0.73753084  0.62172334  0.07405195    -0.06070
C1481       C  0.71447834  0.60553951  0.09544891    -0.33040
C1482       C  0.72579014  0.58267280  0.12005800     0.36020
H1483       H  0.81069085  0.58430144  0.10272992     0.16390
O1484       O  0.79606261  0.62766976  0.05578224    -0.60540
H1485       H  0.68756702  0.61102452  0.09350284     0.16400
O1486       O  0.70192049  0.56736376  0.14006170    -0.60630
H1487       H  0.69755124  0.58365985  0.15855196     0.43400
H1488       H  0.80630910  0.64669434  0.06854113     0.43350
C1489       C  0.88228456  0.57146750  0.23700072    -0.05710
C1490       C  0.87290771  0.59396529  0.26302330    -0.33140
C1491       C  0.89670584  0.61615435  0.27797412     0.36110
C1492       C  0.93087030  0.61602869  0.26737601    -0.06070
C1493       C  0.94019434  0.59338669  0.24141625    -0.33040
C1494       C  0.91641641  0.57125017  0.22649456     0.36020
H1495       H  0.84686049  0.59422796  0.27191107     0.16390
O1496       O  0.88588342  0.63896662  0.30166079    -0.60540
H1497       H  0.96629512  0.59273582  0.23270612     0.16400
O1498       O  0.92728088  0.54815506  0.20309602    -0.60630
H1499       H  0.92433612  0.55949474  0.18109556     0.43400
H1500       H  0.88808751  0.62707294  0.32345761     0.43350
C1501       C  0.92637015  0.38321724  0.26839822    -0.05710
C1502       C  0.93291862  0.40006370  0.23789718    -0.33140
C1503       C  0.90912962  0.42253313  0.22381185     0.36110
C1504       C  0.87771932  0.42817207  0.23993796    -0.06070
C1505       C  0.87131641  0.41084032  0.27044203    -0.33040
C1506       C  0.89530190  0.38881059  0.28464322     0.36020
H1507       H  0.95668082  0.39560730  0.22481962     0.16390
O1508       O  0.91727796  0.43930287  0.19478234    -0.60540
H1509       H  0.84752592  0.41441919  0.28366998     0.16400
O1510       O  0.88740531  0.37163515  0.31351545    -0.60630
H1511       H  0.89656578  0.38577105  0.33203311     0.43400
H1512       H  0.90940147  0.42431377  0.17634652     0.43350
C1513       C  0.72293009  0.43552607  0.26836410    -0.05710
C1514       C  0.68861698  0.44380479  0.27272611    -0.33140
C1515       C  0.66852103  0.42537514  0.29508899     0.36110
C1516       C  0.68297074  0.39825103  0.31289091    -0.06070
C1517       C  0.71729747  0.38970809  0.30756641    -0.33040
C1518       C  0.73742998  0.40867615  0.28605040     0.36020
H1519       H  0.67782295  0.46539951  0.25982165     0.16390
O1520       O  0.63544882  0.43492914  0.30062609    -0.60540
H1521       H  0.72862091  0.36811341  0.31998247     0.16400
O1522       O  0.77112229  0.40059955  0.28206679    -0.60630
H1523       H  0.78307120  0.41241371  0.30064076     0.43400
H1524       H  0.62311134  0.42934130  0.27959741     0.43350
C1525       C  0.73158689  0.56648658  0.27899935    -0.05710
C1526       C  0.71766241  0.55182680  0.30793547    -0.33140
C1527       C  0.69468787  0.57001830  0.32751069     0.36110
C1528       C  0.68567229  0.60278308  0.31768351    -0.06070
C1529       C  0.70006970  0.61748528  0.28892591    -0.33040
C1530       C  0.72307124  0.59940152  0.26951395     0.36020
H1531       H  0.72394679  0.52602876  0.31472785     0.16390
O1532       O  0.68103766  0.55570060  0.35582981    -0.60540
H1533       H  0.69347133  0.64308706  0.28170655     0.16400
O1534       O  0.73624684  0.61354107  0.24086736    -0.60630
H1535       H  0.75865484  0.62285909  0.24760977     0.43400
H1536       H  0.65976540  0.54459716  0.34821041     0.43350
C1537       C  0.38301874  0.26619197  0.07236454    -0.05710
C1538       C  0.41427557  0.28233840  0.07767514    -0.33140
C1539       C  0.43925164  0.26797627  0.09877510     0.36110
C1540       C  0.43334016  0.23688928  0.11591515    -0.06070
C1541       C  0.40184145  0.22096664  0.11081353    -0.33040
C1542       C  0.37698737  0.23525976  0.08951985     0.36020
H1543       H  0.41996712  0.30556158  0.06439663     0.16390
O1544       O  0.46973589  0.28453830  0.10199336    -0.60540
H1545       H  0.39615110  0.19759046  0.12381929     0.16400
O1546       O  0.34663646  0.21858792  0.08564862    -0.60630
H1547       H  0.33080087  0.22971696  0.10160664     0.43400
H1548       H  0.48415804  0.27559613  0.08356695     0.43350
C1549       C  0.42315882  0.11906105  0.23396621    -0.05710
C1550       C  0.43412945  0.08698430  0.24462947    -0.33140
C1551       C  0.41241883  0.06533135  0.26290953     0.36110
C1552       C  0.37869939  0.07514080  0.27006686    -0.06070
C1553       C  0.36759733  0.10697502  0.25873879    -0.33040
C1554       C  0.38961357  0.12900341  0.24154962     0.36020
H1555       H  0.45996354  0.07912748  0.23966240     0.16390
O1556       O  0.42391794  0.03399191  0.27220426    -0.60540
H1557       H  0.34154889  0.11474181  0.26311903     0.16400
O1558       O  0.37816754  0.16046163  0.23251888    -0.60630
H1559       H  0.37066541  0.15806211  0.20884517     0.43400
H1560       H  0.43353442  0.03715532  0.29502398     0.43350
C1561       C  0.56615501  0.11277185  0.23599071    -0.05710
C1562       C  0.60100916  0.11771204  0.22988616    -0.33140
C1563       C  0.62581090  0.09768606  0.24615787     0.36110
C1564       C  0.61627324  0.07213619  0.26924942    -0.06070
C1565       C  0.58151481  0.06721963  0.27533609    -0.33040
C1566       C  0.55673640  0.08706879  0.25898718     0.36020
H1567       H  0.60911196  0.13770889  0.21311213     0.16390
O1568       O  0.65950166  0.10311324  0.23906785    -0.60540
H1569       H  0.57340888  0.04695937  0.29180220     0.16400
O1570       O  0.52307931  0.08071471  0.26529091    -0.60630
H1571       H  0.51733745  0.06096922  0.25094885     0.43400
H1572       H  0.66792164  0.11784049  0.25748381     0.43350
C1573       C  0.57480758  0.23268434  0.12161232    -0.05710
C1574       C  0.56346664  0.24280260  0.08965573    -0.33140
C1575       C  0.58530844  0.25992353  0.06727524     0.36110
C1576       C  0.61931253  0.26662409  0.07637298    -0.06070
C1577       C  0.63066912  0.25606804  0.10816691    -0.33040
C1578       C  0.60863320  0.23990805  0.13084473     0.36020
H1579       H  0.53732147  0.23823740  0.08238933     0.16390
O1580       O  0.57368354  0.26839133  0.03592541    -0.60540
H1581       H  0.65693540  0.26014710  0.11533698     0.16400
O1582       O  0.62039220  0.23135857  0.16213639    -0.60630
H1583       H  0.62736427  0.20732523  0.16023555     0.43400
H1584       H  0.56505846  0.29184802  0.03821365     0.43350
C1585       C  0.43266735  0.27378181  0.26368533    -0.05710
C1586       C  0.43873542  0.30863552  0.26552760    -0.33140
C1587       C  0.42043796  0.32865215  0.28816335     0.36110
C1588       C  0.39566475  0.31355309  0.30884606    -0.06070
C1589       C  0.38897881  0.27874100  0.30581096    -0.33040
C1590       C  0.40773668  0.25879240  0.28391467     0.36020
H1591       H  0.45878873  0.32000307  0.25064498     0.16390
O1592       O  0.42812308  0.36239085  0.29124772    -0.60540
H1593       H  0.36903867  0.26684233  0.32041162     0.16400
O1594       O  0.40139858  0.22467156  0.28216404    -0.60630
H1595       H  0.41399033  0.21464698  0.30129584     0.43400
H1596       H  0.42032861  0.37298626  0.27003476     0.43350
C1597       C  0.60069808  0.30791339  0.31586955    -0.05710
C1598       C  0.57250967  0.29129806  0.32975281    -0.33140
C1599       C  0.55494148  0.26708443  0.31102267     0.36110
C1600       C  0.56582486  0.25930030  0.27829972    -0.06070
C1601       C  0.59440605  0.27503005  0.26473270    -0.33040
C1602       C  0.61218933  0.29894517  0.28339532     0.36020
H1603       H  0.56393570  0.29744514  0.35491316     0.16390
O1604       O  0.52639121  0.25222588  0.32425048    -0.60540
H1605       H  0.60249880  0.26924084  0.23930966     0.16400
O1606       O  0.64153894  0.31236022  0.27028043    -0.60630
H1607       H  0.63409232  0.32803889  0.25230176     0.43400
H1608       H  0.50721703  0.26688386  0.31723296     0.43350
C1609       C  0.88510002  0.76499739  0.56994939    -0.05710
C1610       C  0.89074418  0.78146341  0.60070180    -0.33140
C1611       C  0.91237477  0.76726846  0.62525729     0.36110
C1612       C  0.92880200  0.73574571  0.61972740    -0.06070
C1613       C  0.92314972  0.71925942  0.58910404    -0.33040
C1614       C  0.90186630  0.73352782  0.56442312     0.36020
H1615       H  0.87786089  0.80507647  0.60606243     0.16390
O1616       O  0.91650831  0.78401204  0.65521185    -0.60540
H1617       H  0.93622136  0.69574467  0.58372673     0.16400
O1618       O  0.89868906  0.71693712  0.53425665    -0.60630
H1619       H  0.88225673  0.69836919  0.53844665     0.43400
H1620       H  0.93359648  0.80188792  0.65066138     0.43350
C1621       C  0.76395819  0.87962590  0.57650427    -0.05710
C1622       C  0.76621644  0.91453594  0.57038329    -0.33140
C1623       C  0.75021244  0.93793672  0.59188034     0.36110
C1624       C  0.73193865  0.92667427  0.62026260    -0.06070
C1625       C  0.73043262  0.89193428  0.62689089    -0.33040
C1626       C  0.74563759  0.86848580  0.60501239     0.36020
H1627       H  0.77960828  0.92364890  0.54839701     0.16390
O1628       O  0.75385121  0.97188643  0.58577059    -0.60540
H1629       H  0.71777014  0.88296597  0.64936606     0.16400
O1630       O  0.74332830  0.83463474  0.61224853    -0.60630
H1631       H  0.72037807  0.82767936  0.60454445     0.43400
H1632       H  0.73294610  0.97856286  0.57355854     0.43350
C1633       C  0.76590450  0.88735661  0.43498515    -0.05710
C1634       C  0.76368215  0.87860095  0.40082541    -0.33140
C1635       C  0.74599823  0.89931192  0.37785686     0.36110
C1636       C  0.72989705  0.92939421  0.38862851    -0.06070
C1637       C  0.73220819  0.93817650  0.42276660    -0.33040
C1638       C  0.74955009  0.91731877  0.44580654     0.36020
H1639       H  0.77484531  0.85513130  0.39207642     0.16390
O1640       O  0.74522177  0.89028903  0.34460478    -0.60540
H1641       H  0.72130098  0.96178700  0.43146286     0.16400
O1642       O  0.75015496  0.92633294  0.47910107    -0.60630
H1643       H  0.77192259  0.93862326  0.48220935     0.43400
H1644       H  0.72319785  0.87846550  0.34148239     0.43350
C1645       C  0.92627860  0.73865379  0.38161175    -0.05710
C1646       C  0.90941697  0.71618381  0.40302897    -0.33140
C1647       C  0.88620847  0.72809558  0.42711440     0.36110
C1648       C  0.87988556  0.76326623  0.43077236    -0.06070
C1649       C  0.89775817  0.78583913  0.41031538    -0.33040
C1650       C  0.92045190  0.77389060  0.38574250     0.36020
H1651       H  0.91387622  0.68922293  0.40084812     0.16390
O1652       O  0.87068633  0.70507171  0.44783591    -0.60540
H1653       H  0.89366741  0.81282205  0.41290414     0.16400
O1654       O  0.93776942  0.79710531  0.36670098    -0.60630
H1655       H  0.92197052  0.80326536  0.34829015     0.43400
H1656       H  0.85151342  0.69573540  0.43454179     0.43350
C1657       C  0.72375428  0.73526653  0.43755401    -0.05710
C1658       C  0.71258700  0.74752033  0.40659377    -0.33140
C1659       C  0.69291508  0.72695571  0.38584444     0.36110
C1660       C  0.68347407  0.69432590  0.39679720    -0.06070
C1661       C  0.69421485  0.68237813  0.42788128    -0.33040
C1662       C  0.71417128  0.70262170  0.44842298     0.36020
H1663       H  0.72015427  0.77242525  0.39802973     0.16390
O1664       O  0.68398839  0.73845608  0.35456244    -0.60540
H1665       H  0.68717540  0.65722238  0.43619013     0.16400
O1666       O  0.72467053  0.69014003  0.47888972    -0.60630
H1667       H  0.70363178  0.68631912  0.49207570     0.43400
H1668       H  0.70143957  0.72917304  0.33909423     0.43350
C1669       C  0.72945534  0.72500272  0.56280422    -0.05710
C1670       C  0.69554290  0.71973163  0.55287564    -0.33140
C1671       C  0.67495774  0.69676186  0.56988347     0.36110
C1672       C  0.68819947  0.67922826  0.59753805    -0.06070
C1673       C  0.72242296  0.68392783  0.60669442    -0.33040
C1674       C  0.74307235  0.70644574  0.58949345     0.36020
H1675       H  0.68494055  0.73325008  0.53166269     0.16390
O1676       O  0.64211313  0.69143377  0.55939968    -0.60540
H1677       H  0.73283596  0.67174093  0.62857546     0.16400
O1678       O  0.77606720  0.71094462  0.59977830    -0.60630
H1679       H  0.77534105  0.73016143  0.61583024     0.43400
H1680       H  0.63014316  0.71326391  0.56277127     0.43350
C1681       C  0.73745932  0.07225162  0.38291233    -0.05710
C1682       C  0.77273955  0.07798631  0.38694594    -0.33140
C1683       C  0.78532251  0.10156005  0.41034561     0.36110
C1684       C  0.76267008  0.12072252  0.42991555    -0.06070
C1685       C  0.72741094  0.11508037  0.42587591    -0.33040
C1686       C  0.71482392  0.09107439  0.40291812     0.36020
H1687       H  0.79090993  0.06381021  0.37208286     0.16390
O1688       O  0.81973680  0.10646200  0.41294497    -0.60540
H1689       H  0.70932869  0.12919329  0.44091314     0.16400
O1690       O  0.68037824  0.08642288  0.40025615    -0.60630
H1691       H  0.67304801  0.10184389  0.38202482     0.43400
H1692       H  0.82763705  0.08915022  0.42915442     0.43350
C1693       C  0.76388410  0.11765871  0.57149596    -0.05710
C1694       C  0.73089774  0.12125278  0.58532278    -0.33140
C1695       C  0.71696293  0.09710003  0.60750118     0.36110
C1696       C  0.73580368  0.06822947  0.61650600    -0.06070
C1697       C  0.76896251  0.06489028  0.60284484    -0.33040
C1698       C  0.78286807  0.08905332  0.58072691     0.36020
H1699       H  0.71560674  0.14306220  0.57880967     0.16390
O1700       O  0.68525158  0.10252860  0.62075250    -0.60540
H1701       H  0.78441679  0.04314348  0.60913150     0.16400
O1702       O  0.81472027  0.08388616  0.56768605    -0.60630
H1703       H  0.81098288  0.07142263  0.54634524     0.43400
H1704       H  0.66923519  0.09242819  0.60430925     0.43350
C1705       C  0.87913011  0.23696713  0.57517403    -0.05710
C1706       C  0.89179950  0.27016741  0.57221053    -0.33140
C1707       C  0.91507807  0.28343146  0.59553513     0.36110
C1708       C  0.92540007  0.26383295  0.62324439    -0.06070
C1709       C  0.91250672  0.23048846  0.62604773    -0.33040
C1710       C  0.88996579  0.21698869  0.60214589     0.36020
H1711       H  0.88369336  0.28591250  0.55144092     0.16390
O1712       O  0.92710120  0.31569021  0.59113652    -0.60540
H1713       H  0.92009768  0.21449530  0.64679052     0.16400
O1714       O  0.87741859  0.18489900  0.60633296    -0.60630
H1715       H  0.89345144  0.16997012  0.59406940     0.43400
H1716       H  0.94712215  0.31327558  0.57616054     0.43350
C1717       C  0.92886974  0.26840286  0.38705218    -0.05710
C1718       C  0.93046268  0.27832118  0.42083322    -0.33140
C1719       C  0.90970252  0.26278239  0.44523601     0.36110
C1720       C  0.88638943  0.23682563  0.43627384    -0.06070
C1721       C  0.88484493  0.22689863  0.40243512    -0.33040
C1722       C  0.90571386  0.24241125  0.37805582     0.36020
H1723       H  0.94875591  0.29729952  0.42858114     0.16390
O1724       O  0.91263041  0.27307676  0.47805731    -0.60540
H1725       H  0.86676437  0.20772668  0.39467744     0.16400
O1726       O  0.90342293  0.23177938  0.34529651    -0.60630
H1727       H  0.88874335  0.24868932  0.33401814     0.43400
H1728       H  0.92756927  0.25608296  0.48886945     0.43350
C1729       C  0.72166964  0.27000323  0.56421853    -0.05710
C1730       C  0.70784519  0.25570378  0.59327684    -0.33140
C1731       C  0.68598061  0.27452099  0.61351406     0.36110
C1732       C  0.67721013  0.30778606  0.60410139    -0.06070
C1733       C  0.68977023  0.32137070  0.57418038    -0.33040
C1734       C  0.71222399  0.30289857  0.55446113     0.36020
H1735       H  0.71504167  0.23041935  0.60098640     0.16390
O1736       O  0.67573496  0.26132165  0.64373750    -0.60540
H1737       H  0.68319272  0.34692712  0.56681303     0.16400
O1738       O  0.72438097  0.31705728  0.52544616    -0.60630
H1739       H  0.74364200  0.33160809  0.53258046     0.43400
H1740       H  0.65767716  0.24472437  0.63811202     0.43350
C1741       C  0.73674369  0.27502530  0.43373628    -0.05710
C1742       C  0.71642386  0.25929070  0.40966150    -0.33140
C1743       C  0.69329924  0.27808757  0.39115437     0.36110
C1744       C  0.68848052  0.31283912  0.39855103    -0.06070
C1745       C  0.70950926  0.32852839  0.42248736    -0.33040
C1746       C  0.73432121  0.30999180  0.43925979     0.36020
H1747       H  0.71851910  0.23228758  0.40526910     0.16390
O1748       O  0.67618074  0.26225549  0.36552425    -0.60540
H1749       H  0.70684343  0.35522905  0.42807340     0.16400
O1750       O  0.75471092  0.32584377  0.46237591    -0.60630
H1751       H  0.77550265  0.33228681  0.44981951     0.43400
H1752       H  0.68933748  0.26751269  0.34491644     0.43350
C1753       C  0.11577564  0.76466654  0.43375199    -0.05710
C1754       C  0.08343107  0.77910910  0.43080243    -0.33140
C1755       C  0.05860635  0.76468709  0.40963034     0.36110
C1756       C  0.06581593  0.73543722  0.38997520    -0.06070
C1757       C  0.09826234  0.72096877  0.39297726    -0.33040
C1758       C  0.12297347  0.73525108  0.41453634     0.36020
H1759       H  0.07690397  0.80098813  0.44592281     0.16390
O1760       O  0.02704307  0.77940683  0.40865296    -0.60540
H1761       H  0.10480539  0.69900368  0.37799836     0.16400
O1762       O  0.15432576  0.72022562  0.41655028    -0.60630
H1763       H  0.16912914  0.73344565  0.40124236     0.43400
H1764       H  0.01276870  0.76575659  0.42407978     0.43350
C1765       C  0.26521044  0.93142709  0.61732197    -0.05710
C1766       C  0.25608833  0.94171304  0.58477584    -0.33140
C1767       C  0.23884255  0.91983252  0.56259380     0.36110
C1768       C  0.23001161  0.88678974  0.57256875    -0.06070
C1769       C  0.23923111  0.87628203  0.60511129    -0.33040
C1770       C  0.25629025  0.89838637  0.62746698     0.36020
H1771       H  0.26211676  0.96703411  0.57657429     0.16390
O1772       O  0.23133988  0.93080120  0.53079731    -0.60540
H1773       H  0.23376402  0.85062807  0.61299307     0.16400
O1774       O  0.26323815  0.88776435  0.65951074    -0.60630
H1775       H  0.28700636  0.87945388  0.65873237     0.43400
H1776       H  0.20767487  0.93932806  0.53211840     0.43350
C1777       C  0.07246373  0.73448363  0.62204433    -0.05710
C1778       C  0.10048695  0.75387587  0.63291468    -0.33140
C1779       C  0.12239459  0.76950307  0.60986811     0.36110
C1780       C  0.11620557  0.76669377  0.57523599    -0.06070
C1781       C  0.08843045  0.74723224  0.56415856    -0.33040
C1782       C  0.06668903  0.73111209  0.58723782     0.36020
H1783       H  0.10535804  0.75704996  0.65953701     0.16390
O1784       O  0.15031696  0.78677388  0.62142030    -0.60540
H1785       H  0.08404041  0.74392940  0.53746709     0.16400
O1786       O  0.03904537  0.71352951  0.57553176    -0.60630
H1787       H  0.04727064  0.69007312  0.57206913     0.43400
H1788       H  0.14322031  0.81082743  0.62228802     0.43350
C1789       C  0.26400157  0.92308630  0.38154340    -0.05710
C1790       C  0.27815414  0.92173613  0.41389185    -0.33140
C1791       C  0.26414214  0.90062054  0.43876176     0.36110
C1792       C  0.23521754  0.88061874  0.43179910    -0.06070
C1793       C  0.22129164  0.88141047  0.39954581    -0.33040
C1794       C  0.23539613  0.90215665  0.37451960     0.36020
H1795       H  0.29983733  0.93743539  0.42016642     0.16390
O1796       O  0.27925053  0.89916440  0.46979759    -0.60540
H1797       H  0.19995493  0.86516977  0.39342006     0.16400
O1798       O  0.22140310  0.90101105  0.34296002    -0.60630
H1799       H  0.20096138  0.91564383  0.34414230     0.43400
H1800       H  0.27443217  0.92130257  0.48052661     0.43350
C1801       C  0.27251803  0.73810452  0.57329789    -0.05710
C1802       C  0.30754585  0.73736760  0.56710149    -0.33140
C1803       C  0.32835642  0.71488763  0.58456791     0.36110
C1804       C  0.31392916  0.69334965  0.60882726    -0.06070
C1805       C  0.27891496  0.69545754  0.61585418    -0.33040
C1806       C  0.25811912  0.71705054  0.59765860     0.36020
H1807       H  0.31845062  0.75292141  0.54744258     0.16390
O1808       O  0.36218787  0.71265241  0.57640562    -0.60540
H1809       H  0.26747872  0.68017343  0.63539823     0.16400
O1810       O  0.22379919  0.71761955  0.60390646    -0.60630
H1811       H  0.21421823  0.69868844  0.59051451     0.43400
H1812       H  0.37259121  0.73400937  0.58457255     0.43350
C1813       C  0.31212309  0.68836468  0.40323286    -0.05710
C1814       C  0.29613973  0.67365222  0.43108022    -0.33140
C1815       C  0.27344567  0.69257111  0.45035951     0.36110
C1816       C  0.26674836  0.72629269  0.44156817    -0.06070
C1817       C  0.28224714  0.74093613  0.41375822    -0.33040
C1818       C  0.30450768  0.72211853  0.39422123     0.36020
H1819       H  0.30128906  0.64760190  0.43778145     0.16390
O1820       O  0.25844266  0.67823802  0.47802074    -0.60540
H1821       H  0.27692597  0.76699429  0.40711937     0.16400
O1822       O  0.31711975  0.73625818  0.36530233    -0.60630
H1823       H  0.33425647  0.75309775  0.37276496     0.43400
H1824       H  0.27307423  0.68476885  0.49727197     0.43350
loop_ 
_geom_bond_atom_site_label_1 
_geom_bond_atom_site_label_2 
_geom_bond_distance 
_geom_bond_site_symmetry_2 
_ccdc_geom_bond_type 
O1           C16   1.255       .  A
O1           Al9   1.874       .  S
C2           O12   1.273       .  A
C2            O3   1.257       .  A
C2         C1753   1.500       .  S
O3           Al5   1.895       .  S
O4            C6   1.254       .  A
O4           Al5   1.869       .  S
Al5          O13   1.867       .  S
Al5          O15   1.886       .  S
Al5          O14   1.791       .  S
C6           O19   1.256       .  A
C6         C1816   1.440       .  S
O7           C17   1.254       .  A
O7           Al9   1.866       .  S
O8           C21   1.272       .  A
O8          Al18   1.965       .  S
Al9          O22   1.893       .  S
Al9          O19   1.886       .  S
Al9          O14   1.794       .  S
O10          C17   1.274       .  A
O10         Al18   1.971       .  S
O11          C20   1.271       .  A
O11         Al18   1.963       .  S
O12         Al18   1.961       .  S
O13          C20   1.253       .  A
O14         Al18   1.784       .  S
O15          C16   1.257       .  A
C16        C1801   1.446       .  S
C17        C1792   1.481       .  S
C20        C1780   1.476       .  S
C21          O22   1.255       .  A
C21        C1768   1.493       .  S
O23          C38   1.254       .  A
O23         Al31   1.878       .  S
C24          O34   1.273       .  A
C24          O25   1.254       .  A
C24        C1720   1.501       .  S
O25         Al27   1.890       .  S
O26          C28   1.259       .  A
O26         Al27   1.878       .  S
Al27         O35   1.866       .  S
Al27         O37   1.892       .  S
Al27         O36   1.794       .  S
C28          O41   1.261       .  A
C28        C1741   1.446       .  S
O29          C39   1.255       .  A
O29         Al31   1.866       .  S
O30          C43   1.274       .  A
O30         Al40   1.967       .  S
Al31         O44   1.883       .  S
Al31         O41   1.893       .  S
Al31         O36   1.783       .  S
O32          C39   1.274       .  A
O32         Al40   1.966       .  S
O33          C42   1.277       .  A
O33         Al40   1.975       .  S
O34         Al40   1.972       .  S
O35          C42   1.258       .  A
O36         Al40   1.779       .  S
O37          C38   1.256       .  A
C38        C1729   1.457       .  S
C39        C1684   1.494       .  S
C42        C1705   1.482       .  S
C43          O44   1.255       .  A
C43        C1693   1.504       .  S
O45          C60   1.263       .  A
O45         Al53   1.898       .  S
C46          O56   1.275       .  A
C46          O47   1.252       .  A
C46        C1609   1.508       .  S
O47         Al49   1.873       .  S
O48          C50   1.259       .  A
O48         Al49   1.884       .  S
Al49         O57   1.859       .  S
Al49         O59   1.872       .  S
Al49         O58   1.779       .  S
C50          O63   1.256       .  A
C50        C1669   1.456       .  S
O51          C61   1.258       .  A
O51         Al53   1.867       .  S
O52          C65   1.273       .  A
O52         Al62   1.972       .  S
Al53         O66   1.889       .  S
Al53         O63   1.884       .  S
Al53         O58   1.786       .  S
O54          C61   1.278       .  A
O54         Al62   1.981       .  S
O55          C64   1.277       .  A
O55         Al62   1.976       .  S
O56         Al62   1.981       .  S
O57          C64   1.255       .  A
O58         Al62   1.776       .  S
O59          C60   1.257       .  A
C60        C1657   1.452       .  S
C61        C1621   1.488       .  S
C64        C1648   1.490       .  S
C65          O66   1.253       .  A
C65        C1633   1.494       .  S
O67          C82   1.258       .  A
O67         Al75   1.884       .  S
C68          O78   1.277       .  A
C68          O69   1.261       .  A
C68        C1561   1.505       .  S
O69         Al71   1.910       .  S
O70          C72   1.258       .  A
O70         Al71   1.884       .  S
Al71         O79   1.874       .  S
Al71         O81   1.881       .  S
Al71         O80   1.783       .  S
C72          O85   1.257       .  A
C72        C1600   1.445       .  S
O73          C83   1.255       .  A
O73         Al75   1.878       .  S
O74          C87   1.279       .  A
O74         Al84   1.978       .  S
Al75         O88   1.905       .  S
Al75         O85   1.881       .  S
Al75         O80   1.781       .  S
O76          C83   1.274       .  A
O76         Al84   1.981       .  S
O77          C86   1.276       .  A
O77         Al84   1.990       .  S
O78         Al84   1.976       .  S
O79          C86   1.254       .  A
O80         Al84   1.775       .  S
O81          C82   1.257       .  A
C82        C1585   1.448       .  S
C83        C1573   1.487       .  S
C86        C1549   1.489       .  S
C87          O88   1.261       .  A
C87        C1540   1.513       .  S
O89         C104   1.253       .  A
O89         Al97   1.873       .  S
C90         O100   1.274       .  A
C90          O91   1.255       .  A
C90        C1468   1.506       .  S
O91         Al93   1.891       .  S
O92          C94   1.256       .  A
O92         Al93   1.875       .  S
Al93        O101   1.866       .  S
Al93        O103   1.886       .  S
Al93        O102   1.789       .  S
C94         O107   1.258       .  A
C94        C1513   1.443       .  S
O95         C105   1.254       .  A
O95         Al97   1.860       .  S
O96         C109   1.273       .  A
O96        Al106   1.963       .  S
Al97        O110   1.890       .  S
Al97        O107   1.890       .  S
Al97        O102   1.787       .  S
O98         C105   1.277       .  A
O98        Al106   1.982       .  S
O99         C108   1.278       .  A
O99        Al106   1.985       .  S
O100       Al106   1.967       .  S
O101        C108   1.256       .  A
O102       Al106   1.784       .  S
O103        C104   1.255       .  A
C104       C1525   1.437       .  S
C105       C1504   1.501       .  S
C108       C1477   1.500       .  S
C109        O110   1.255       .  A
C109       C1489   1.497       .  S
O111        C126   1.258       .  A
O111       Al119   1.881       .  S
C112        O122   1.272       .  A
C112        O113   1.251       .  A
C112       C1429   1.489       .  S
O113       Al115   1.873       .  S
O114        C116   1.256       .  A
O114       Al115   1.889       .  S
Al115       O123   1.869       .  S
Al115       O125   1.887       .  S
Al115       O124   1.788       .  S
C116        O129   1.255       .  A
C116       C1456   1.445       .  S
O117        C127   1.259       .  A
O117       Al119   1.870       .  S
O118        C131   1.273       .  A
O118       Al128   1.969       .  S
Al119       O132   1.879       .  S
Al119       O129   1.887       .  S
Al119       O124   1.788       .  S
O120        C127   1.278       .  A
O120       Al128   1.973       .  S
O121        C130   1.275       .  A
O121       Al128   1.970       .  S
O122       Al128   1.964       .  S
O123        C130   1.256       .  A
O124       Al128   1.780       .  S
O125        C126   1.260       .  A
C126       C1444   1.461       .  S
C127       C1396   1.497       .  S
C130       C1417   1.481       .  S
C131        O132   1.252       .  A
C131       C1408   1.504       .  S
O133        C148   1.256       .  A
O133       Al141   1.879       .  S
C134        O144   1.274       .  A
C134        O135   1.253       .  A
C134       C1321   1.509       .  S
O135       Al137   1.878       .  S
O136        C138   1.257       .  A
O136       Al137   1.881       .  S
Al137       O145   1.859       .  S
Al137       O147   1.883       .  S
Al137       O146   1.782       .  S
C138        O151   1.260       .  A
C138       C1381   1.450       .  S
O139        C149   1.257       .  A
O139       Al141   1.870       .  S
O140        C153   1.274       .  A
O140       Al150   1.966       .  S
Al141       O154   1.890       .  S
Al141       O151   1.896       .  S
Al141       O146   1.786       .  S
O142        C149   1.276       .  A
O142       Al150   1.972       .  S
O143        C152   1.279       .  A
O143       Al150   1.982       .  S
O144       Al150   1.975       .  S
O145        C152   1.256       .  A
O146       Al150   1.779       .  S
O147        C148   1.256       .  A
C148       C1369   1.442       .  S
C149       C1333   1.498       .  S
C152       C1357   1.493       .  S
C153        O154   1.256       .  A
C153       C1345   1.498       .  S
O155        C170   1.258       .  A
O155       Al163   1.879       .  S
C156        O166   1.278       .  A
C156        O157   1.259       .  A
C156       C1285   1.511       .  S
O157       Al159   1.896       .  S
O158        C160   1.256       .  A
O158       Al159   1.882       .  S
Al159       O167   1.870       .  S
Al159       O169   1.879       .  S
Al159       O168   1.784       .  S
C160        O173   1.254       .  A
C160       C1297   1.445       .  S
O161        C171   1.255       .  A
O161       Al163   1.870       .  S
O162        C175   1.276       .  A
O162       Al172   1.971       .  S
Al163       O176   1.903       .  S
Al163       O173   1.876       .  S
Al163       O168   1.785       .  S
O164        C171   1.275       .  A
O164       Al172   1.978       .  S
O165        C174   1.271       .  A
O165       Al172   1.964       .  S
O166       Al172   1.969       .  S
O167        C174   1.253       .  A
O168       Al172   1.777       .  S
O169        C170   1.258       .  A
C170       C1312   1.442       .  S
C171       C1249   1.490       .  S
C174       C1273   1.477       .  S
C175        O176   1.258       .  A
C175       C1264   1.505       .  S
O177        C192   1.261       .  A
O177       Al185   1.897       .  S
C178        O188   1.275       .  A
C178        O179   1.253       .  A
C178       C1189   1.503       .  S
O179       Al181   1.881       .  S
O180        C182   1.261       .  A
O180       Al181   1.894       .  S
Al181       O189   1.865       .  S
Al181       O191   1.881       .  S
Al181       O190   1.784       .  S
C182        O195   1.256       .  A
C182       C1237   1.462       .  S
O183        C193   1.256       .  A
O183       Al185   1.863       .  S
O184        C197   1.273       .  A
O184       Al194   1.971       .  S
Al185       O198   1.887       .  S
Al185       O195   1.877       .  S
Al185       O190   1.782       .  S
O186        C193   1.279       .  A
O186       Al194   1.987       .  S
O187        C196   1.277       .  A
O187       Al194   1.977       .  S
O188       Al194   1.975       .  S
O189        C196   1.257       .  A
O190       Al194   1.776       .  S
O191        C192   1.258       .  A
C192       C1225   1.458       .  S
C193       C1177   1.499       .  S
C196       C1213   1.492       .  S
C197        O198   1.253       .  A
C197       C1201   1.497       .  S
O199        C214   1.254       .  A
O199       Al207   1.878       .  S
C200        O210   1.274       .  A
C200        O201   1.254       .  A
C200       C1105   1.503       .  S
O201       Al203   1.886       .  S
O202        C204   1.259       .  A
O202       Al203   1.879       .  S
Al203       O211   1.866       .  S
Al203       O213   1.885       .  S
Al203       O212   1.791       .  S
C204        O217   1.259       .  A
C204       C1153   1.444       .  S
O205        C215   1.254       .  A
O205       Al207   1.863       .  S
O206        C219   1.275       .  A
O206       Al216   1.971       .  S
Al207       O220   1.874       .  S
Al207       O217   1.883       .  S
Al207       O212   1.784       .  S
O208        C215   1.273       .  A
O208       Al216   1.966       .  S
O209        C218   1.277       .  A
O209       Al216   1.974       .  S
O210       Al216   1.971       .  S
O211        C218   1.258       .  A
O212       Al216   1.777       .  S
O213        C214   1.256       .  A
C214       C1168   1.454       .  S
C215       C1117   1.480       .  S
C218       C1141   1.486       .  S
C219        O220   1.253       .  A
C219       C1129   1.505       .  S
O221        C236   1.259       .  A
O221       Al229   1.885       .  S
C222        O232   1.275       .  A
C222        O223   1.253       .  A
C222       C1036   1.492       .  S
O223       Al225   1.876       .  S
O224        C226   1.254       .  A
O224       Al225   1.877       .  S
Al225       O233   1.869       .  S
Al225       O235   1.884       .  S
Al225       O234   1.788       .  S
C226        O239   1.255       .  A
C226       C1093   1.445       .  S
O227        C237   1.256       .  A
O227       Al229   1.872       .  S
O228        C241   1.275       .  A
O228       Al238   1.970       .  S
Al229       O242   1.892       .  S
Al229       O239   1.885       .  S
Al229       O234   1.785       .  S
O230        C237   1.275       .  A
O230       Al238   1.976       .  S
O231        C240   1.273       .  A
O231       Al238   1.966       .  S
O232       Al238   1.968       .  S
O233        C240   1.256       .  A
O234       Al238   1.780       .  S
O235        C236   1.259       .  A
C236       C1081   1.452       .  S
C237       C1069   1.480       .  S
C240       C1060   1.488       .  S
C241        O242   1.256       .  A
C241       C1045   1.511       .  S
O243        C258   1.256       .  A
O243       Al251   1.880       .  S
C244        O254   1.275       .  A
C244        O245   1.259       .  A
C244        C985   1.506       .  S
O245       Al247   1.902       .  S
O246        C248   1.256       .  A
O246       Al247   1.878       .  S
Al247       O255   1.868       .  S
Al247       O257   1.894       .  S
Al247       O256   1.782       .  S
C248        O261   1.259       .  A
C248       C1009   1.442       .  S
O249        C259   1.255       .  A
O249       Al251   1.870       .  S
O250        C263   1.276       .  A
O250       Al260   1.966       .  S
Al251       O264   1.908       .  S
Al251       O261   1.895       .  S
Al251       O256   1.779       .  S
O252        C259   1.277       .  A
O252       Al260   1.985       .  S
O253        C262   1.278       .  A
O253       Al260   1.985       .  S
O254       Al260   1.966       .  S
O255        C262   1.256       .  A
O256       Al260   1.774       .  S
O257        C258   1.258       .  A
C258       C1021   1.440       .  S
C259        C997   1.493       .  S
C262        C976   1.499       .  S
C263        O264   1.261       .  A
C263        C961   1.514       .  S
C265       C1096   1.470       .  S
C265        C266   1.398       .  A
C265        C270   1.396       .  A
C266        C267   1.398       .  A
C266        H271   1.082       .  S
C267       C1300   1.471       .  S
C267        C268   1.400       .  A
C268        C269   1.394       .  A
C268        H272   1.085       .  S
C269       C1012   1.463       .  S
C269        C270   1.395       .  A
C270        H273   1.085       .  S
C274       C1024   1.453       .  S
C274        C275   1.393       .  A
C274        C279   1.394       .  A
C275        C276   1.401       .  A
C275        H280   1.085       .  S
C276       C1588   1.471       .  S
C276        C277   1.398       .  A
C277        C278   1.396       .  A
C277        H281   1.084       .  S
C278       C1384   1.455       .  S
C278        C279   1.392       .  A
C279        H282   1.085       .  S
C283       C1732   1.463       .  S
C283        C284   1.397       .  A
C283        C288   1.394       .  A
C284        C285   1.394       .  A
C284        H289   1.085       .  S
C285       C1165   1.461       .  S
C285        C286   1.397       .  A
C286        C287   1.393       .  A
C286        H290   1.084       .  S
C287       C1084   1.460       .  S
C287        C288   1.397       .  A
C288        H291   1.084       .  S
C292       C1156   1.470       .  S
C292        C293   1.398       .  A
C292        C297   1.394       .  A
C293        C294   1.399       .  A
C293        H298   1.083       .  S
C294       C1672   1.467       .  S
C294        C295   1.399       .  A
C295        C296   1.393       .  A
C295        H299   1.082       .  S
C296       C1240   1.465       .  S
C296        C297   1.396       .  A
C297        H300   1.084       .  S
C301       C1804   1.472       .  S
C301        C302   1.398       .  A
C301        C306   1.399       .  A
C302        C303   1.398       .  A
C302        H307   1.084       .  S
C303       C1228   1.461       .  S
C303        C304   1.393       .  A
C304        C305   1.397       .  A
C304        H308   1.085       .  S
C305       C1309   1.465       .  S
C305        C306   1.395       .  A
C306        H309   1.083       .  S
C310       C1372   1.468       .  S
C310        C311   1.401       .  A
C310        C315   1.396       .  A
C311        C312   1.398       .  A
C311        H316   1.083       .  S
C312       C1813   1.465       .  S
C312        C313   1.395       .  A
C313        C314   1.388       .  A
C313        H317   1.085       .  S
C314       C1453   1.447       .  S
C314        C315   1.390       .  A
C315        H318   1.085       .  S
C319       C1441   1.465       .  S
C319        C320   1.397       .  A
C319        C324   1.398       .  A
C320        C321   1.388       .  A
C320        H325   1.083       .  S
C321       C1660   1.455       .  S
C321        C322   1.393       .  A
C322        C323   1.392       .  A
C322        H326   1.085       .  S
C323       C1528   1.450       .  S
C323        C324   1.396       .  A
C324        H327   1.084       .  S
C328       C1597   1.468       .  S
C328        C329   1.395       .  A
C328        C333   1.398       .  A
C329        C330   1.398       .  A
C329        H334   1.084       .  S
C330       C1744   1.475       .  S
C330        C331   1.397       .  A
C331        C332   1.398       .  A
C331        H335   1.083       .  S
C332       C1516   1.470       .  S
C332        C333   1.397       .  A
C333        H336   1.083       .  S
O337        C352   1.260       .  A
O337       Al345   1.879   1_545  S
C338        O348   1.276       .  A
C338        O339   1.255       .  A
C338       C1192   1.501       .  S
O339       Al341   1.881   1_565  S
O340        C342   1.254       .  A
O340       Al341   1.883   1_565  S
Al341       O349   1.868       .  S
Al341       O351   1.890       .  S
Al341       O350   1.778   1_545  S
C342        O355   1.254       .  A
C342        C949   1.451       .  S
O343        C353   1.258       .  A
O343       Al345   1.872       .  S
O344        C357   1.274       .  A
O344       Al354   1.972       .  S
Al345       O358   1.895   1_565  S
Al345       O355   1.889       .  S
Al345       O350   1.790       .  S
O346        C353   1.278       .  A
O346       Al354   1.980   1_565  S
O347        C356   1.274       .  A
O347       Al354   1.970       .  S
O348       Al354   1.971   1_565  S
O349        C356   1.254       .  A
O350       Al354   1.778   1_565  S
O351        C352   1.261       .  A
C352        C937   1.443       .  S
C353       C1624   1.478       .  S
C356       C1057   1.501       .  S
C357        O358   1.256       .  A
C357       C1696   1.511       .  S
C359        C925   1.461       .  S
C359        C360   1.398       .  A
C359        C364   1.395       .  A
C360        C361   1.396       .  A
C360        H365   1.084       .  S
C361        C940   1.468       .  S
C361        C362   1.399       .  A
C362        C363   1.393       .  A
C362        H366   1.085       .  S
C363        C913   1.460       .  S
C363        C364   1.396       .  A
C364        H367   1.085       .  S
O368        C383   1.255       .  A
O368       Al376   1.876   1_455  S
C369        O379   1.275       .  A
C369        O370   1.255       .  A
C369       C1132   1.508       .  S
O370       Al372   1.888   1_655  S
O371        C373   1.259       .  A
O371       Al372   1.886   1_655  S
Al372       O380   1.868       .  S
Al372       O382   1.881       .  S
Al372       O381   1.783       .  S
C373        O386   1.260       .  A
C373        C928   1.456       .  S
O374        C384   1.256       .  A
O374       Al376   1.869       .  S
O375        C388   1.275       .  A
O375       Al385   1.966   1_455  S
Al376       O389   1.888   1_655  S
Al376       O386   1.890       .  S
Al376       O381   1.784   1_655  S
O377        C384   1.274       .  A
O377       Al385   1.966       .  S
O378        C387   1.275       .  A
O378       Al385   1.974   1_455  S
O379       Al385   1.969       .  S
O380        C387   1.255       .  A
O381       Al385   1.778   1_455  S
O382        C383   1.256       .  A
C383        C901   1.442       .  S
C384       C1708   1.497       .  S
C387       C1252   1.476       .  S
C388        O389   1.257       .  A
C388        C988   1.500       .  S
O390        C405   1.259       .  A
O390       Al398   1.892   1_565  S
C391        O401   1.274       .  A
C391        O392   1.253       .  A
C391       C1033   1.497       .  S
O392       Al394   1.883       .  S
O393        C395   1.260       .  A
O393       Al394   1.890       .  S
Al394       O402   1.869   1_545  S
Al394       O404   1.882   1_545  S
Al394       O403   1.786       .  S
C395        O408   1.261       .  A
C395        C877   1.461       .  S
O396        C406   1.255       .  A
O396       Al398   1.874       .  S
O397        C410   1.272       .  A
O397       Al407   1.965   1_565  S
Al398       O411   1.899   1_545  S
Al398       O408   1.891       .  S
Al398       O403   1.784       .  S
O399        C406   1.275       .  A
O399       Al407   1.977       .  S
O400        C409   1.277       .  A
O400       Al407   1.976   1_565  S
O401       Al407   1.974       .  S
O402        C409   1.258       .  A
O403       Al407   1.774       .  S
O404        C405   1.256       .  A
C405        C889   1.456       .  S
C406       C1000   1.484       .  S
C409       C1216   1.491       .  S
C410        O411   1.256       .  A
C410       C1765   1.495       .  S
C412        C868   1.459       .  S
C412        C413   1.393       .  A
C412        C417   1.398       .  A
C413        C414   1.396       .  A
C413        H418   1.085       .  S
C414        C904   1.465       .  S
C414        C415   1.394       .  A
C415        C416   1.398       .  A
C415        H419   1.084       .  S
C416        C880   1.466       .  S
C416        C417   1.397       .  A
C417        H420   1.084       .  S
O421        C436   1.257       .  A
O421       Al429   1.886   1_455  S
C422        O432   1.274       .  A
C422        O423   1.253       .  A
C422       C1612   1.501       .  S
O423       Al425   1.884   1_655  S
O424        C426   1.259       .  A
O424       Al425   1.887   1_655  S
Al425       O433   1.867       .  S
Al425       O435   1.881       .  S
Al425       O434   1.784   1_455  S
C426        O439   1.258       .  A
C426        C856   1.458       .  S
O427        C437   1.257       .  A
O427       Al429   1.864       .  S
O428        C441   1.274       .  A
O428       Al438   1.969   1_455  S
Al429       O442   1.881   1_655  S
Al429       O439   1.888       .  S
Al429       O434   1.784       .  S
O430        C437   1.277       .  A
O430       Al438   1.973       .  S
O431        C440   1.277       .  A
O431       Al438   1.975   1_455  S
O432       Al438   1.969       .  S
O433        C440   1.257       .  A
O434       Al438   1.781       .  S
O435        C436   1.257       .  A
C436        C844   1.453       .  S
C437       C1120   1.497       .  S
C440       C1777   1.488       .  S
C441        O442   1.253       .  A
C441       C1261   1.499       .  S
C443        C841   1.460       .  S
C443        C444   1.396       .  A
C443        C448   1.393       .  A
C444        C445   1.393       .  A
C444        H449   1.084       .  S
C445        C892   1.462       .  S
C445        C446   1.398       .  A
C446        C447   1.395       .  A
C446        H450   1.084       .  S
C447        C829   1.462       .  S
C447        C448   1.397       .  A
C448        H451   1.085       .  S
O452        C467   1.252       .  A
O452       Al460   1.878   1_556  S
C453        O463   1.272       .  A
C453        O454   1.255       .  A
C453       C1348   1.505       .  S
O454       Al456   1.902   1_554  S
O455        C457   1.261       .  A
O455       Al456   1.878   1_554  S
Al456       O464   1.865       .  S
Al456       O466   1.892       .  S
Al456       O465   1.790   1_556  S
C457        O470   1.263       .  A
C457        C820   1.444       .  S
O458        C468   1.253       .  A
O458       Al460   1.860       .  S
O459        C472   1.274       .  A
O459       Al469   1.967   1_556  S
Al460       O473   1.878   1_554  S
Al460       O470   1.892       .  S
Al460       O465   1.781       .  S
O461        C468   1.274       .  A
O461       Al469   1.968       .  S
O462        C471   1.281       .  A
O462       Al469   1.987   1_556  S
O463       Al469   1.972       .  S
O464        C471   1.259       .  A
O465       Al469   1.777       .  S
O466        C467   1.254       .  A
C467        C832   1.455       .  S
C468       C1393   1.489       .  S
C471       C1276   1.495       .  S
C472        O473   1.254       .  A
C472       C1204   1.494       .  S
O474        C489   1.258       .  A
O474       Al482   1.876   1_455  S
C475        O485   1.275       .  A
C475        O476   1.257       .  A
C475       C1492   1.502       .  S
O476       Al478   1.896   1_655  S
O477        C479   1.257       .  A
O477       Al478   1.883   1_655  S
Al478       O486   1.854       .  S
Al478       O488   1.895       .  S
Al478       O487   1.782   1_455  S
C479        O492   1.257       .  A
C479        C808   1.460       .  S
O480        C490   1.258       .  A
O480       Al482   1.867       .  S
O481        C494   1.275       .  A
O481       Al491   1.976   1_455  S
Al482       O495   1.893   1_655  S
Al482       O492   1.889       .  S
Al482       O487   1.784       .  S
O483        C490   1.278       .  A
O483       Al491   1.980       .  S
O484        C493   1.276       .  A
O484       Al491   1.977   1_455  S
O485       Al491   1.970       .  S
O486        C493   1.253       .  A
O487       Al491   1.775       .  S
O488        C489   1.261       .  A
C489        C793   1.443       .  S
C490       C1645   1.492       .  S
C493       C1360   1.487       .  S
C494        O495   1.256       .  A
C494       C1756   1.507       .  S
C496        C817   1.470       .  S
C496        C497   1.399       .  A
C496        C501   1.397       .  A
C497        C498   1.392       .  A
C497        H502   1.085       .  S
C498        C781   1.456       .  S
C498        C499   1.395       .  A
C499        C500   1.396       .  A
C499        H503   1.084       .  S
C500        C796   1.469       .  S
C500        C501   1.399       .  A
C501        H504   1.082       .  S
O505        C520   1.259       .  A
O505       Al513   1.879   1_554  S
C506        O516   1.274       .  A
C506        O507   1.252       .  A
C506       C1108   1.498       .  S
O507       Al509   1.871   1_556  S
O508        C510   1.254       .  A
O508       Al509   1.884   1_556  S
Al509       O517   1.868       .  S
Al509       O519   1.886       .  S
Al509       O518   1.786       .  S
C510        O523   1.254       .  A
C510        C772   1.456       .  S
O511        C521   1.258       .  A
O511       Al513   1.870       .  S
O512        C525   1.274       .  A
O512       Al522   1.975       .  S
Al513       O526   1.880   1_556  S
Al513       O523   1.882       .  S
Al513       O518   1.793   1_556  S
O514        C521   1.278       .  A
O514       Al522   1.978   1_556  S
O515        C524   1.275       .  A
O515       Al522   1.971       .  S
O516       Al522   1.969   1_556  S
O517        C524   1.255       .  A
O518       Al522   1.782       .  S
O519        C520   1.260       .  A
C520        C757   1.445       .  S
C521       C1180   1.481       .  S
C524       C1480   1.497       .  S
C525        O526   1.252       .  A
C525       C1405   1.510       .  S
C527        C805   1.466       .  S
C527        C528   1.397       .  A
C527        C532   1.398       .  A
C528        C529   1.400       .  A
C528        H533   1.084       .  S
C529        C760   1.468       .  S
C529        C530   1.396       .  A
C530        C531   1.395       .  A
C530        H534   1.084       .  S
C531        C745   1.460       .  S
C531        C532   1.393       .  A
C532        H535   1.083       .  S
O536        C551   1.259       .  A
O536       Al544   1.891   1_556  S
C537        O547   1.274       .  A
C537        O538   1.253       .  A
C537       C1537   1.506       .  S
O538       Al540   1.885       .  S
O539        C541   1.261       .  A
O539       Al540   1.880       .  S
Al540       O548   1.871   1_554  S
Al540       O550   1.878   1_554  S
Al540       O549   1.785       .  S
C541        O554   1.255       .  A
C541        C736   1.464       .  S
O542        C552   1.257       .  A
O542       Al544   1.870       .  S
O543        C556   1.275       .  A
O543       Al553   1.980   1_556  S
Al544       O557   1.869   1_554  S
Al544       O554   1.885       .  S
Al544       O549   1.791       .  S
O545        C552   1.276       .  A
O545       Al553   1.968       .  S
O546        C555   1.275       .  A
O546       Al553   1.971   1_556  S
O547       Al553   1.974       .  S
O548        C555   1.257       .  A
O549       Al553   1.783       .  S
O550        C551   1.255       .  A
C551        C865   1.453       .  S
C552       C1336   1.481       .  S
C555       C1072   1.486       .  S
C556        O557   1.251       .  A
C556       C1288   1.508       .  S
O558        C573   1.255       .  A
O558       Al566   1.874   1_545  S
C559        O569   1.275       .  A
C559        O560   1.258       .  A
C559       C1432   1.495       .  S
O560       Al562   1.904   1_565  S
O561        C563   1.259       .  A
O561       Al562   1.888   1_565  S
Al562       O570   1.873       .  S
Al562       O572   1.880       .  S
Al562       O571   1.775       .  S
C563        O576   1.260       .  A
C563        C784   1.453       .  S
O564        C574   1.254       .  A
O564       Al566   1.863       .  S
O565        C578   1.277       .  A
O565       Al575   1.966   1_545  S
Al566       O579   1.906   1_565  S
Al566       O576   1.898       .  S
Al566       O571   1.781   1_565  S
O567        C574   1.277       .  A
O567       Al575   1.985       .  S
O568        C577   1.279       .  A
O568       Al575   1.995   1_545  S
O569       Al575   1.965       .  S
O570        C577   1.255       .  A
O571       Al575   1.772   1_545  S
O572        C573   1.259       .  A
C573        C721   1.440       .  S
C574       C1789   1.499       .  S
C577       C1552   1.492       .  S
C578        O579   1.261       .  A
C578        C964   1.509       .  S
O580        C595   1.254       .  A
O580       Al588   1.866   1_455  S
C581        O591   1.273       .  A
C581        O582   1.254       .  A
C581       C1717   1.496       .  S
O582       Al584   1.881       .  S
O583        C585   1.250       .  A
O583       Al584   1.867       .  S
Al584       O592   1.861   1_655  S
Al584       O594   1.891   1_655  S
Al584       O593   1.791       .  S
C585        O598   1.254       .  A
C585        C709   1.438       .  S
O586        C596   1.255       .  A
O586       Al588   1.864       .  S
O587        C600   1.273       .  A
O587       Al597   1.966   1_455  S
Al588       O601   1.884   1_655  S
Al588       O598   1.885       .  S
Al588       O593   1.795       .  S
O589        C596   1.276       .  A
O589       Al597   1.976       .  S
O590        C599   1.274       .  A
O590       Al597   1.973   1_455  S
O591       Al597   1.966       .  S
O592        C599   1.253       .  A
O593       Al597   1.784       .  S
O594        C595   1.259       .  A
C595        C697   1.442       .  S
C596       C1501   1.482       .  S
C599        C973   1.490       .  S
C600        O601   1.254       .  A
C600       C1324   1.504       .  S
C602        C724   1.471       .  S
C602        C603   1.404       .  A
C602        C607   1.392       .  A
C603        C604   1.404       .  A
C603        H608   1.081       .  S
C604        C733   1.485       .  S
C604        C605   1.406       .  A
C605        C606   1.394       .  A
C605        H609   1.083       .  S
C606        C700   1.466       .  S
C606        C607   1.391       .  A
C607        H610   1.084       .  S
O611        C626   1.259       .  A
O611       Al619   1.887       .  S
C612        O622   1.275       .  A
C612        O613   1.255       .  A
C612       C1048   1.506       .  S
O613       Al615   1.885   1_556  S
O614        C616   1.259       .  A
O614       Al615   1.889   1_556  S
Al615       O623   1.872       .  S
Al615       O625   1.870       .  S
Al615       O624   1.779       .  S
C616        O629   1.257       .  A
C616        C916   1.454       .  S
O617        C627   1.256       .  A
O617       Al619   1.863   1_556  S
O618        C631   1.276       .  A
O618       Al628   1.977       .  S
Al619       O632   1.888       .  S
Al619       O629   1.885   1_554  S
Al619       O624   1.786       .  S
O620        C627   1.278       .  A
O620       Al628   1.979   1_556  S
O621        C630   1.276       .  A
O621       Al628   1.982       .  S
O622       Al628   1.971   1_556  S
O623        C630   1.255       .  A
O624       Al628   1.779       .  S
O625        C626   1.257       .  A
C626        C688   1.450       .  S
C627       C1144   1.497       .  S
C630       C1576   1.488       .  S
C631        O632   1.255       .  A
C631       C1465   1.513       .  S
O633        C648   1.260       .  A
O633       Al641   1.892       .  S
C634        O644   1.270       .  A
C634        O635   1.250       .  A
C634       C1564   1.499       .  S
O635       Al637   1.878       .  S
O636        C638   1.258       .  A
O636       Al637   1.882       .  S
Al637       O645   1.865   1_545  S
Al637       O647   1.883   1_545  S
Al637       O646   1.787   1_545  S
C638        O651   1.255       .  A
C638        C676   1.457       .  S
O639        C649   1.260       .  A
O639       Al641   1.869   1_545  S
O640        C653   1.270       .  A
O640       Al650   1.968   1_565  S
Al641       O654   1.874       .  S
Al641       O651   1.890   1_565  S
Al641       O646   1.796       .  S
O642        C649   1.279       .  A
O642       Al650   1.975       .  S
O643        C652   1.277       .  A
O643       Al650   1.973   1_565  S
O644       Al650   1.968       .  S
O645        C652   1.257       .  A
O646       Al650   1.786   1_565  S
O647        C648   1.258       .  A
C648        C748   1.458       .  S
C649       C1681   1.497       .  S
C652       C1420   1.494       .  S
C653        O654   1.248       .  A
C653       C1636   1.493       .  S
C655        C712   1.458       .  S
C655        C656   1.394       .  A
C655        C660   1.390       .  A
C656        C657   1.403       .  A
C656        H661   1.083       .  S
C657        C685   1.486       .  S
C657        C658   1.405       .  A
C658        C659   1.399       .  A
C658        H662   1.081       .  S
C659        C673   1.462       .  S
C659        C660   1.393       .  A
C660        H663   1.085       .  S
C664        C769   1.465       .  S
C664        C665   1.397       .  A
C664        C669   1.395       .  A
C665        C666   1.395       .  A
C665        H670   1.085       .  S
C666        C952   1.458       .  S
C666        C667   1.395       .  A
C667        C668   1.394       .  A
C667        H671   1.084       .  S
C668        C853   1.464       .  S
C668        C669   1.398       .  A
C669        H672   1.084       .  S
C673        C674   1.397       .  A
C673        C678   1.411       .  A
C674        C675   1.394       .  A
C674        H679   1.084       .  S
C675        C676   1.412       .  A
C675        O680   1.372       .  S
C676        C677   1.392       .  A
C677        C678   1.392       .  A
C677        H681   1.084       .  S
C678        O682   1.374       .  S
O680        H684   0.992       .  S
O682        H683   0.992       .  S
C685        C686   1.412       .  A
C685        C690   1.417       .  A
C686        C687   1.395       .  A
C686        H691   1.083       .  S
C687        C688   1.401       .  A
C687        O692   1.372       .  S
C688        C689   1.392       .  A
C689        C690   1.387       .  A
C689        H693   1.085       .  S
C690        O694   1.372       .  S
O692        H696   0.992       .  S
O694        H695   0.992       .  S
C697        C698   1.398       .  A
C697        C702   1.399       .  A
C698        C699   1.392       .  A
C698        H703   1.084       .  S
C699        C700   1.407       .  A
C699        O704   1.372       .  S
C700        C701   1.406       .  A
C701        C702   1.387       .  A
C701        H705   1.084       .  S
C702        O706   1.373       .  S
O704        H708   0.992       .  S
O706        H707   0.992       .  S
C709        C710   1.399       .  A
C709        C714   1.398       .  A
C710        C711   1.390       .  A
C710        H715   1.084       .  S
C711        C712   1.403       .  A
C711        O716   1.372       .  S
C712        C713   1.405       .  A
C713        C714   1.389       .  A
C713        H717   1.084       .  S
C714        O718   1.372       .  S
O716        H720   0.992       .  S
O718        H719   0.992       .  S
C721        C722   1.387       .  A
C721        C726   1.402       .  A
C722        C723   1.381       .  A
C722        H727   1.085       .  S
C723        C724   1.411       .  A
C723        O728   1.367       .  S
C724        C725   1.407       .  A
C725        C726   1.400       .  A
C725        H729   1.083       .  S
C726        O730   1.375       .  S
O728        H732   0.993       .  S
O730        H731   0.991       .  S
C733        C734   1.405       .  A
C733        C738   1.415       .  A
C734        C735   1.391       .  A
C734        H739   1.084       .  S
C735        C736   1.411       .  A
C735        O740   1.372       .  S
C736        C737   1.393       .  A
C737        C738   1.390       .  A
C737        H741   1.084       .  S
C738        O742   1.366       .  S
O740        H744   0.992       .  S
O742        H743   0.993       .  S
C745        C746   1.405       .  A
C745        C750   1.400       .  A
C746        C747   1.394       .  A
C746        H751   1.084       .  S
C747        C748   1.404       .  A
C747        O752   1.370       .  S
C748        C749   1.405       .  A
C749        C750   1.386       .  A
C749        H753   1.084       .  S
C750        O754   1.372       .  S
O752        H756   0.992       .  S
O754        H755   0.992       .  S
C757        C758   1.400       .  A
C757        C762   1.400       .  A
C758        C759   1.396       .  A
C758        H763   1.084       .  S
C759        C760   1.408       .  A
C759        O764   1.373       .  S
C760        C761   1.406       .  A
C761        C762   1.387       .  A
C761        H765   1.083       .  S
C762        O766   1.373       .  S
O764        H768   0.992       .  S
O766        H767   0.992       .  S
C769        C770   1.407       .  A
C769        C774   1.403       .  A
C770        C771   1.393       .  A
C770        H775   1.084       .  S
C771        C772   1.403       .  A
C771        O776   1.372       .  S
C772        C773   1.404       .  A
C773        C774   1.388       .  A
C773        H777   1.084       .  S
C774        O778   1.372       .  S
O776        H780   0.992       .  S
O778        H779   0.992       .  S
C781        C782   1.393       .  A
C781        C786   1.411       .  A
C782        C783   1.389       .  A
C782        H787   1.084       .  S
C783        C784   1.409       .  A
C783        O788   1.369       .  S
C784        C785   1.395       .  A
C785        C786   1.393       .  A
C785        H789   1.084       .  S
C786        O790   1.372       .  S
O788        H792   0.992       .  S
O790        H791   0.992       .  S
C793        C794   1.399       .  A
C793        C798   1.398       .  A
C794        C795   1.395       .  A
C794        H799   1.084       .  S
C795        C796   1.408       .  A
C795        O800   1.372       .  S
C796        C797   1.407       .  A
C797        C798   1.388       .  A
C797        H801   1.083       .  S
C798        O802   1.373       .  S
O800        H804   0.992       .  S
O802        H803   0.992       .  S
C805        C806   1.407       .  A
C805        C810   1.403       .  A
C806        C807   1.391       .  A
C806        H811   1.083       .  S
C807        C808   1.403       .  A
C807        O812   1.372       .  S
C808        C809   1.406       .  A
C809        C810   1.392       .  A
C809        H813   1.084       .  S
C810        O814   1.374       .  S
O812        H816   0.992       .  S
O814        H815   0.992       .  S
C817        C818   1.407       .  A
C817        C822   1.408       .  A
C818        C819   1.385       .  A
C818        H823   1.082       .  S
C819        C820   1.398       .  A
C819        O824   1.373       .  S
C820        C821   1.400       .  A
C821        C822   1.396       .  A
C821        H825   1.084       .  S
C822        O826   1.373       .  S
O824        H828   0.992       .  S
O826        H827   0.992       .  S
C829        C830   1.398       .  A
C829        C834   1.411       .  A
C830        C831   1.388       .  A
C830        H835   1.084       .  S
C831        C832   1.408       .  A
C831        O836   1.371       .  S
C832        C833   1.398       .  A
C833        C834   1.392       .  A
C833        H837   1.084       .  S
C834        O838   1.372       .  S
O836        H840   0.992       .  S
O838        H839   0.992       .  S
C841        C842   1.407       .  A
C841        C846   1.401       .  A
C842        C843   1.392       .  A
C842        H847   1.084       .  S
C843        C844   1.402       .  A
C843        O848   1.372       .  S
C844        C845   1.404       .  A
C845        C846   1.385       .  A
C845        H849   1.084       .  S
C846        O850   1.372       .  S
O848        H852   0.992       .  S
O850        H851   0.992       .  S
C853        C854   1.396       .  A
C853        C858   1.413       .  A
C854        C855   1.388       .  A
C854        H859   1.084       .  S
C855        C856   1.412       .  A
C855        O860   1.372       .  S
C856        C857   1.397       .  A
C857        C858   1.393       .  A
C857        H861   1.084       .  S
C858        O862   1.372       .  S
O860        H864   0.992       .  S
O862        H863   0.992       .  S
C865        C866   1.407       .  A
C865        C870   1.399       .  A
C866        C867   1.389       .  A
C866        H871   1.084       .  S
C867        C868   1.398       .  A
C867        O872   1.372       .  S
C868        C869   1.408       .  A
C869        C870   1.391       .  A
C869        H873   1.083       .  S
C870        O874   1.372       .  S
O872        H876   0.992       .  S
O874        H875   0.992       .  S
C877        C878   1.404       .  A
C877        C882   1.406       .  A
C878        C879   1.385       .  A
C878        H883   1.084       .  S
C879        C880   1.403       .  A
C879        O884   1.372       .  S
C880        C881   1.406       .  A
C881        C882   1.396       .  A
C881        H885   1.083       .  S
C882        O886   1.372       .  S
O884        H888   0.992       .  S
O886        H887   0.992       .  S
C889        C890   1.397       .  A
C889        C894   1.411       .  A
C890        C891   1.393       .  A
C890        H895   1.084       .  S
C891        C892   1.412       .  A
C891        O896   1.372       .  S
C892        C893   1.395       .  A
C893        C894   1.389       .  A
C893        H897   1.084       .  S
C894        O898   1.373       .  S
O896        H900   0.992       .  S
O898        H899   0.991       .  S
C901        C902   1.400       .  A
C901        C906   1.399       .  A
C902        C903   1.394       .  A
C902        H907   1.084       .  S
C903        C904   1.406       .  A
C903        O908   1.373       .  S
C904        C905   1.406       .  A
C905        C906   1.386       .  A
C905        H909   1.083       .  S
C906        O910   1.373       .  S
O908        H912   0.992       .  S
O910        H911   0.992       .  S
C913        C914   1.395       .  A
C913        C918   1.412       .  A
C914        C915   1.389       .  A
C914        H919   1.084       .  S
C915        C916   1.411       .  A
C915        O920   1.372       .  S
C916        C917   1.395       .  A
C917        C918   1.390       .  A
C917        H921   1.084       .  S
C918        O922   1.371       .  S
O920        H924   0.992       .  S
O922        H923   0.992       .  S
C925        C926   1.405       .  A
C925        C930   1.402       .  A
C926        C927   1.395       .  A
C926        H931   1.084       .  S
C927        C928   1.404       .  A
C927        O932   1.372       .  S
C928        C929   1.403       .  A
C929        C930   1.387       .  A
C929        H933   1.084       .  S
C930        O934   1.372       .  S
O932        H936   0.992       .  S
O934        H935   0.992       .  S
C937        C938   1.400       .  A
C937        C942   1.398       .  A
C938        C939   1.397       .  A
C938        H943   1.084       .  S
C939        C940   1.408       .  A
C939        O944   1.372       .  S
C940        C941   1.405       .  A
C941        C942   1.384       .  A
C941        H945   1.081       .  S
C942        O946   1.373       .  S
O944        H948   0.992       .  S
O946        H947   0.992       .  S
C949        C950   1.403       .  A
C949        C954   1.400       .  A
C950        C951   1.390       .  A
C950        H955   1.084       .  S
C951        C952   1.402       .  A
C951        O956   1.371       .  S
C952        C953   1.404       .  A
C953        C954   1.389       .  A
C953        H957   1.084       .  S
C954        O958   1.370       .  S
O956        H960   0.992       .  S
O958        H959   0.992       .  S
C961        C962   1.419       .  A
C961        C966   1.409       .  A
C962        C963   1.412       .  A
C962        H967   1.083       .  S
C963        C964   1.407       .  A
C963        O968   1.371       .  S
C964        C965   1.416       .  A
C965        C966   1.412       .  A
C965        H969   1.083       .  S
C966        O970   1.371       .  S
O968        H972   0.992       .  S
O970        H971   0.992       .  S
C973        C974   1.412       .  A
C973        C978   1.402       .  A
C974        C975   1.407       .  A
C974        H979   1.084       .  S
C975        C976   1.407       .  A
C975        O980   1.371       .  S
C976        C977   1.417       .  A
C977        C978   1.407       .  A
C977        H981   1.083       .  S
C978        O982   1.371       .  S
O980        H984   0.992       .  S
O982        H983   0.992       .  S
C985        C986   1.417       .  A
C985        C990   1.408       .  A
C986        C987   1.411       .  A
C986        H991   1.083       .  S
C987        C988   1.405       .  A
C987        O992   1.371       .  S
C988        C989   1.414       .  A
C989        C990   1.411       .  A
C989        H993   1.084       .  S
C990        O994   1.371       .  S
O992        H996   0.992       .  S
O994        H995   0.992       .  S
C997        C998   1.404       .  A
C997       C1002   1.416       .  A
C998        C999   1.409       .  A
C998       H1003   1.084       .  S
C999       C1000   1.410       .  A
C999       O1004   1.369       .  S
C1000      C1001   1.401       .  A
C1001      C1002   1.407       .  A
C1001      H1005   1.084       .  S
C1002      O1006   1.372       .  S
O1004      H1008   0.992       .  S
O1006      H1007   0.992       .  S
C1009      C1010   1.393       .  A
C1009      C1014   1.405       .  A
C1010      C1011   1.389       .  A
C1010      H1015   1.084       .  S
C1011      C1012   1.413       .  A
C1011      O1016   1.372       .  S
C1012      C1013   1.399       .  A
C1013      C1014   1.393       .  A
C1013      H1017   1.084       .  S
C1014      O1018   1.372       .  S
O1016      H1020   0.992       .  S
O1018      H1019   0.992       .  S
C1021      C1022   1.402       .  A
C1021      C1026   1.398       .  A
C1022      C1023   1.393       .  A
C1022      H1027   1.084       .  S
C1023      C1024   1.400       .  A
C1023      O1028   1.371       .  S
C1024      C1025   1.403       .  A
C1025      C1026   1.389       .  A
C1025      H1029   1.084       .  S
C1026      O1030   1.372       .  S
O1028      H1032   0.992       .  S
O1030      H1031   0.992       .  S
C1033      C1034   1.414       .  A
C1033      C1038   1.406       .  A
C1034      C1035   1.409       .  A
C1034      H1039   1.084       .  S
C1035      C1036   1.404       .  A
C1035      O1040   1.371       .  S
C1036      C1037   1.413       .  A
C1037      C1038   1.411       .  A
C1037      H1041   1.084       .  S
C1038      O1042   1.371       .  S
O1040      H1044   0.991       .  S
O1042      H1043   0.991       .  S
C1045      C1046   1.420       .  A
C1045      C1050   1.408       .  A
C1046      C1047   1.411       .  A
C1046      H1051   1.083       .  S
C1047      C1048   1.405       .  A
C1047      O1052   1.371       .  S
C1048      C1049   1.417       .  A
C1049      C1050   1.411       .  A
C1049      H1053   1.083       .  S
C1050      O1054   1.371       .  S
O1052      H1056   0.992       .  S
O1054      H1055   0.992       .  S
C1057      C1058   1.403       .  A
C1057      C1062   1.425       .  A
C1058      C1059   1.406       .  A
C1058      H1063   1.083       .  S
C1059      C1060   1.415       .  A
C1059      O1064   1.372       .  S
C1060      C1061   1.397       .  A
C1061      C1062   1.405       .  A
C1061      H1065   1.084       .  S
C1062      O1066   1.371       .  S
O1064      H1068   0.992       .  S
O1066      H1067   0.992       .  S
C1069      C1070   1.406       .  A
C1069      C1074   1.406       .  A
C1070      C1071   1.409       .  A
C1070      H1075   1.084       .  S
C1071      C1072   1.410       .  A
C1071      O1076   1.371       .  S
C1072      C1073   1.407       .  A
C1073      C1074   1.404       .  A
C1073      H1077   1.084       .  S
C1074      O1078   1.372       .  S
O1076      H1080   0.992       .  S
O1078      H1079   0.992       .  S
C1081      C1082   1.403       .  A
C1081      C1086   1.402       .  A
C1082      C1083   1.387       .  A
C1082      H1087   1.083       .  S
C1083      C1084   1.401       .  A
C1083      O1088   1.372       .  S
C1084      C1085   1.406       .  A
C1085      C1086   1.392       .  A
C1085      H1089   1.084       .  S
C1086      O1090   1.372       .  S
O1088      H1092   0.992       .  S
O1090      H1091   0.992       .  S
C1093      C1094   1.394       .  A
C1093      C1098   1.403       .  A
C1094      C1095   1.390       .  A
C1094      H1099   1.084       .  S
C1095      C1096   1.415       .  A
C1095      O1100   1.373       .  S
C1096      C1097   1.403       .  A
C1097      C1098   1.392       .  A
C1097      H1101   1.084       .  S
C1098      O1102   1.372       .  S
O1100      H1104   0.992       .  S
O1102      H1103   0.992       .  S
C1105      C1106   1.417       .  A
C1105      C1110   1.407       .  A
C1106      C1107   1.410       .  A
C1106      H1111   1.084       .  S
C1107      C1108   1.404       .  A
C1107      O1112   1.371       .  S
C1108      C1109   1.415       .  A
C1109      C1110   1.410       .  A
C1109      H1113   1.084       .  S
C1110      O1114   1.371       .  S
O1112      H1116   0.991       .  S
O1114      H1115   0.992       .  S
C1117      C1118   1.408       .  A
C1117      C1122   1.400       .  A
C1118      C1119   1.406       .  A
C1118      H1123   1.084       .  S
C1119      C1120   1.410       .  A
C1119      O1124   1.371       .  S
C1120      C1121   1.417       .  A
C1121      C1122   1.404       .  A
C1121      H1125   1.083       .  S
C1122      O1126   1.371       .  S
O1124      H1128   0.992       .  S
O1126      H1127   0.992       .  S
C1129      C1130   1.418       .  A
C1129      C1134   1.404       .  A
C1130      C1131   1.409       .  A
C1130      H1135   1.083       .  S
C1131      C1132   1.406       .  A
C1131      O1136   1.371       .  S
C1132      C1133   1.420       .  A
C1133      C1134   1.410       .  A
C1133      H1137   1.083       .  S
C1134      O1138   1.371       .  S
O1136      H1140   0.992       .  S
O1138      H1139   0.992       .  S
C1141      C1142   1.396       .  A
C1141      C1146   1.416       .  A
C1142      C1143   1.404       .  A
C1142      H1147   1.084       .  S
C1143      C1144   1.424       .  A
C1143      O1148   1.372       .  S
C1144      C1145   1.401       .  A
C1145      C1146   1.405       .  A
C1145      H1149   1.083       .  S
C1146      O1150   1.372       .  S
O1148      H1152   0.992       .  S
O1150      H1151   0.992       .  S
C1153      C1154   1.393       .  A
C1153      C1158   1.403       .  A
C1154      C1155   1.386       .  A
C1154      H1159   1.085       .  S
C1155      C1156   1.412       .  A
C1155      O1160   1.370       .  S
C1156      C1157   1.405       .  A
C1157      C1158   1.393       .  A
C1157      H1161   1.084       .  S
C1158      O1162   1.372       .  S
O1160      H1164   0.992       .  S
O1162      H1163   0.992       .  S
C1165      C1166   1.406       .  A
C1165      C1170   1.403       .  A
C1166      C1167   1.391       .  A
C1166      H1171   1.084       .  S
C1167      C1168   1.403       .  A
C1167      O1172   1.372       .  S
C1168      C1169   1.404       .  A
C1169      C1170   1.387       .  A
C1169      H1173   1.084       .  S
C1170      O1174   1.372       .  S
O1172      H1176   0.992       .  S
O1174      H1175   0.992       .  S
C1177      C1178   1.416       .  A
C1177      C1182   1.410       .  A
C1178      C1179   1.404       .  A
C1178      H1183   1.083       .  S
C1179      C1180   1.401       .  A
C1179      O1184   1.371       .  S
C1180      C1181   1.408       .  A
C1181      C1182   1.409       .  A
C1181      H1185   1.084       .  S
C1182      O1186   1.371       .  S
O1184      H1188   0.992       .  S
O1186      H1187   0.992       .  S
C1189      C1190   1.400       .  A
C1189      C1194   1.424       .  A
C1190      C1191   1.410       .  A
C1190      H1195   1.083       .  S
C1191      C1192   1.420       .  A
C1191      O1196   1.370       .  S
C1192      C1193   1.400       .  A
C1193      C1194   1.411       .  A
C1193      H1197   1.083       .  S
C1194      O1198   1.372       .  S
O1196      H1200   0.991       .  S
O1198      H1199   0.992       .  S
C1201      C1202   1.403       .  A
C1201      C1206   1.418       .  A
C1202      C1203   1.412       .  A
C1202      H1207   1.083       .  S
C1203      C1204   1.417       .  A
C1203      O1208   1.371       .  S
C1204      C1205   1.402       .  A
C1205      C1206   1.410       .  A
C1205      H1209   1.083       .  S
C1206      O1210   1.372       .  S
O1208      H1212   0.992       .  S
O1210      H1211   0.992       .  S
C1213      C1214   1.414       .  A
C1213      C1218   1.405       .  A
C1214      C1215   1.405       .  A
C1214      H1219   1.084       .  S
C1215      C1216   1.404       .  A
C1215      O1220   1.371       .  S
C1216      C1217   1.414       .  A
C1217      C1218   1.406       .  A
C1217      H1221   1.084       .  S
C1218      O1222   1.371       .  S
O1220      H1224   0.992       .  S
O1222      H1223   0.992       .  S
C1225      C1226   1.407       .  A
C1225      C1230   1.402       .  A
C1226      C1227   1.387       .  A
C1226      H1231   1.084       .  S
C1227      C1228   1.399       .  A
C1227      O1232   1.372       .  S
C1228      C1229   1.407       .  A
C1229      C1230   1.394       .  A
C1229      H1233   1.083       .  S
C1230      O1234   1.372       .  S
O1232      H1236   0.992       .  S
O1234      H1235   0.992       .  S
C1237      C1238   1.400       .  A
C1237      C1242   1.413       .  A
C1238      C1239   1.396       .  A
C1238      H1243   1.084       .  S
C1239      C1240   1.411       .  A
C1239      O1244   1.372       .  S
C1240      C1241   1.396       .  A
C1241      C1242   1.384       .  A
C1241      H1245   1.084       .  S
C1242      O1246   1.373       .  S
O1244      H1248   0.992       .  S
O1246      H1247   0.992       .  S
C1249      C1250   1.410       .  A
C1249      C1254   1.410       .  A
C1250      C1251   1.403       .  A
C1250      H1255   1.083       .  S
C1251      C1252   1.404       .  A
C1251      O1256   1.371       .  S
C1252      C1253   1.406       .  A
C1253      C1254   1.408       .  A
C1253      H1257   1.084       .  S
C1254      O1258   1.371       .  S
O1256      H1260   0.992       .  S
O1258      H1259   0.992       .  S
C1261      C1262   1.414       .  A
C1261      C1266   1.405       .  A
C1262      C1263   1.412       .  A
C1262      H1267   1.084       .  S
C1263      C1264   1.408       .  A
C1263      O1268   1.371       .  S
C1264      C1265   1.417       .  A
C1265      C1266   1.411       .  A
C1265      H1269   1.083       .  S
C1266      O1270   1.371       .  S
O1268      H1272   0.991       .  S
O1270      H1271   0.991       .  S
C1273      C1274   1.407       .  A
C1273      C1278   1.401       .  A
C1274      C1275   1.407       .  A
C1274      H1279   1.084       .  S
C1275      C1276   1.410       .  A
C1275      O1280   1.371       .  S
C1276      C1277   1.414       .  A
C1277      C1278   1.403       .  A
C1277      H1281   1.083       .  S
C1278      O1282   1.371       .  S
O1280      H1284   0.992       .  S
O1282      H1283   0.992       .  S
C1285      C1286   1.421       .  A
C1285      C1290   1.406       .  A
C1286      C1287   1.413       .  A
C1286      H1291   1.083       .  S
C1287      C1288   1.405       .  A
C1287      O1292   1.371       .  S
C1288      C1289   1.418       .  A
C1289      C1290   1.409       .  A
C1289      H1293   1.083       .  S
C1290      O1294   1.371       .  S
O1292      H1296   0.992       .  S
O1294      H1295   0.992       .  S
C1297      C1298   1.400       .  A
C1297      C1302   1.398       .  A
C1298      C1299   1.398       .  A
C1298      H1303   1.084       .  S
C1299      C1300   1.408       .  A
C1299      O1304   1.373       .  S
C1300      C1301   1.407       .  A
C1301      C1302   1.386       .  A
C1301      H1305   1.084       .  S
C1302      O1306   1.373       .  S
O1304      H1308   0.992       .  S
O1306      H1307   0.992       .  S
C1309      C1310   1.406       .  A
C1309      C1314   1.406       .  A
C1310      C1311   1.385       .  A
C1310      H1315   1.083       .  S
C1311      C1312   1.398       .  A
C1311      O1316   1.373       .  S
C1312      C1313   1.401       .  A
C1313      C1314   1.396       .  A
C1313      H1317   1.084       .  S
C1314      O1318   1.372       .  S
O1316      H1320   0.992       .  S
O1318      H1319   0.992       .  S
C1321      C1322   1.420       .  A
C1321      C1326   1.407       .  A
C1322      C1323   1.408       .  A
C1322      H1327   1.083       .  S
C1323      C1324   1.404       .  A
C1323      O1328   1.371       .  S
C1324      C1325   1.418       .  A
C1325      C1326   1.411       .  A
C1325      H1329   1.083       .  S
C1326      O1330   1.371       .  S
O1328      H1332   0.992       .  S
O1330      H1331   0.992       .  S
C1333      C1334   1.415       .  A
C1333      C1338   1.410       .  A
C1334      C1335   1.405       .  A
C1334      H1339   1.083       .  S
C1335      C1336   1.402       .  A
C1335      O1340   1.371       .  S
C1336      C1337   1.407       .  A
C1337      C1338   1.407       .  A
C1337      H1341   1.084       .  S
C1338      O1342   1.371       .  S
O1340      H1344   0.992       .  S
O1342      H1343   0.992       .  S
C1345      C1346   1.402       .  A
C1345      C1350   1.417       .  A
C1346      C1347   1.412       .  A
C1346      H1351   1.083       .  S
C1347      C1348   1.420       .  A
C1347      O1352   1.372       .  S
C1348      C1349   1.405       .  A
C1349      C1350   1.413       .  A
C1349      H1353   1.083       .  S
C1350      O1354   1.372       .  S
O1352      H1356   0.992       .  S
O1354      H1355   0.992       .  S
C1357      C1358   1.417       .  A
C1357      C1362   1.405       .  A
C1358      C1359   1.405       .  A
C1358      H1363   1.083       .  S
C1359      C1360   1.401       .  A
C1359      O1364   1.371       .  S
C1360      C1361   1.413       .  A
C1361      C1362   1.404       .  A
C1361      H1365   1.084       .  S
C1362      O1366   1.371       .  S
O1364      H1368   0.992       .  S
O1366      H1367   0.992       .  S
C1369      C1370   1.395       .  A
C1369      C1374   1.401       .  A
C1370      C1371   1.390       .  A
C1370      H1375   1.085       .  S
C1371      C1372   1.413       .  A
C1371      O1376   1.373       .  S
C1372      C1373   1.404       .  A
C1373      C1374   1.391       .  A
C1373      H1377   1.084       .  S
C1374      O1378   1.372       .  S
O1376      H1380   0.992       .  S
O1378      H1379   0.992       .  S
C1381      C1382   1.402       .  A
C1381      C1386   1.402       .  A
C1382      C1383   1.389       .  A
C1382      H1387   1.084       .  S
C1383      C1384   1.400       .  A
C1383      O1388   1.372       .  S
C1384      C1385   1.404       .  A
C1385      C1386   1.393       .  A
C1385      H1389   1.084       .  S
C1386      O1390   1.372       .  S
O1388      H1392   0.992       .  S
O1390      H1391   0.992       .  S
C1393      C1394   1.412       .  A
C1393      C1398   1.403       .  A
C1394      C1395   1.404       .  A
C1394      H1399   1.084       .  S
C1395      C1396   1.407       .  A
C1395      O1400   1.371       .  S
C1396      C1397   1.416       .  A
C1397      C1398   1.406       .  A
C1397      H1401   1.083       .  S
C1398      O1402   1.371       .  S
O1400      H1404   0.992       .  S
O1402      H1403   0.992       .  S
C1405      C1406   1.402       .  A
C1405      C1410   1.428       .  A
C1406      C1407   1.411       .  A
C1406      H1411   1.083       .  S
C1407      C1408   1.423       .  A
C1407      O1412   1.371       .  S
C1408      C1409   1.398       .  A
C1409      C1410   1.409       .  A
C1409      H1413   1.083       .  S
C1410      O1414   1.372       .  S
O1412      H1416   0.992       .  S
O1414      H1415   0.992       .  S
C1417      C1418   1.398       .  A
C1417      C1422   1.412       .  A
C1418      C1419   1.405       .  A
C1418      H1423   1.084       .  S
C1419      C1420   1.420       .  A
C1419      O1424   1.372       .  S
C1420      C1421   1.404       .  A
C1421      C1422   1.407       .  A
C1421      H1425   1.083       .  S
C1422      O1426   1.372       .  S
O1424      H1428   0.992       .  S
O1426      H1427   0.992       .  S
C1429      C1430   1.411       .  A
C1429      C1434   1.406       .  A
C1430      C1431   1.411       .  A
C1430      H1435   1.084       .  S
C1431      C1432   1.408       .  A
C1431      O1436   1.371       .  S
C1432      C1433   1.411       .  A
C1433      C1434   1.409       .  A
C1433      H1437   1.083       .  S
C1434      O1438   1.371       .  S
O1436      H1440   0.991       .  S
O1438      H1439   0.991       .  S
C1441      C1442   1.406       .  A
C1441      C1446   1.403       .  A
C1442      C1443   1.391       .  A
C1442      H1447   1.083       .  S
C1443      C1444   1.405       .  A
C1443      O1448   1.371       .  S
C1444      C1445   1.404       .  A
C1445      C1446   1.387       .  A
C1445      H1449   1.084       .  S
C1446      O1450   1.375       .  S
O1448      H1452   0.992       .  S
O1450      H1451   0.992       .  S
C1453      C1454   1.390       .  A
C1453      C1458   1.409       .  A
C1454      C1455   1.387       .  A
C1454      H1459   1.084       .  S
C1455      C1456   1.407       .  A
C1455      O1460   1.368       .  S
C1456      C1457   1.394       .  A
C1457      C1458   1.392       .  A
C1457      H1461   1.084       .  S
C1458      O1462   1.372       .  S
O1460      H1464   0.992       .  S
O1462      H1463   0.992       .  S
C1465      C1466   1.403       .  A
C1465      C1470   1.427       .  A
C1466      C1467   1.413       .  A
C1466      H1471   1.083       .  S
C1467      C1468   1.422       .  A
C1467      O1472   1.372       .  S
C1468      C1469   1.399       .  A
C1469      C1470   1.410       .  A
C1469      H1473   1.083       .  S
C1470      O1474   1.372       .  S
O1472      H1476   0.992       .  S
O1474      H1475   0.992       .  S
C1477      C1478   1.401       .  A
C1477      C1482   1.423       .  A
C1478      C1479   1.408       .  A
C1478      H1483   1.083       .  S
C1479      C1480   1.420       .  A
C1479      O1484   1.372       .  S
C1480      C1481   1.399       .  A
C1481      C1482   1.407       .  A
C1481      H1485   1.084       .  S
C1482      O1486   1.372       .  S
O1484      H1488   0.992       .  S
O1486      H1487   0.992       .  S
C1489      C1490   1.413       .  A
C1489      C1494   1.406       .  A
C1490      C1491   1.413       .  A
C1490      H1495   1.084       .  S
C1491      C1492   1.408       .  A
C1491      O1496   1.371       .  S
C1492      C1493   1.414       .  A
C1493      C1494   1.411       .  A
C1493      H1497   1.084       .  S
C1494      O1498   1.371       .  S
O1496      H1500   0.991       .  S
O1498      H1499   0.991       .  S
C1501      C1502   1.409       .  A
C1501      C1506   1.400       .  A
C1502      C1503   1.408       .  A
C1502      H1507   1.084       .  S
C1503      C1504   1.410       .  A
C1503      O1508   1.371       .  S
C1504      C1505   1.418       .  A
C1505      C1506   1.404       .  A
C1505      H1509   1.083       .  S
C1506      O1510   1.371       .  S
O1508      H1512   0.992       .  S
O1510      H1511   0.992       .  S
C1513      C1514   1.400       .  A
C1513      C1518   1.397       .  A
C1514      C1515   1.396       .  A
C1514      H1519   1.084       .  S
C1515      C1516   1.407       .  A
C1515      O1520   1.372       .  S
C1516      C1517   1.408       .  A
C1517      C1518   1.387       .  A
C1517      H1521   1.083       .  S
C1518      O1522   1.372       .  S
O1520      H1524   0.992       .  S
O1522      H1523   0.992       .  S
C1525      C1526   1.401       .  A
C1525      C1530   1.397       .  A
C1526      C1527   1.392       .  A
C1526      H1531   1.084       .  S
C1527      C1528   1.400       .  A
C1527      O1532   1.371       .  S
C1528      C1529   1.404       .  A
C1529      C1530   1.387       .  A
C1529      H1533   1.084       .  S
C1530      O1534   1.372       .  S
O1532      H1536   0.992       .  S
O1534      H1535   0.992       .  S
C1537      C1538   1.401       .  A
C1537      C1542   1.421       .  A
C1538      C1539   1.413       .  A
C1538      H1543   1.083       .  S
C1539      C1540   1.426       .  A
C1539      O1544   1.372       .  S
C1540      C1541   1.404       .  A
C1541      C1542   1.413       .  A
C1541      H1545   1.083       .  S
C1542      O1546   1.372       .  S
O1544      H1548   0.992       .  S
O1546      H1547   0.992       .  S
C1549      C1550   1.406       .  A
C1549      C1554   1.409       .  A
C1550      C1551   1.411       .  A
C1550      H1555   1.081       .  S
C1551      C1552   1.411       .  A
C1551      O1556   1.371       .  S
C1552      C1553   1.407       .  A
C1553      C1554   1.406       .  A
C1553      H1557   1.084       .  S
C1554      O1558   1.372       .  S
O1556      H1560   0.992       .  S
O1558      H1559   0.992       .  S
C1561      C1562   1.406       .  A
C1561      C1566   1.418       .  A
C1562      C1563   1.415       .  A
C1562      H1567   1.083       .  S
C1563      C1564   1.417       .  A
C1563      O1568   1.372       .  S
C1564      C1565   1.402       .  A
C1565      C1566   1.412       .  A
C1565      H1569   1.084       .  S
C1566      O1570   1.370       .  S
O1568      H1572   0.992       .  S
O1570      H1571   0.992       .  S
C1573      C1574   1.407       .  A
C1573      C1578   1.409       .  A
C1574      C1575   1.411       .  A
C1574      H1579   1.083       .  S
C1575      C1576   1.410       .  A
C1575      O1580   1.371       .  S
C1576      C1577   1.406       .  A
C1577      C1578   1.405       .  A
C1577      H1581   1.084       .  S
C1578      O1582   1.372       .  S
O1580      H1584   0.992       .  S
O1582      H1583   0.992       .  S
C1585      C1586   1.400       .  A
C1585      C1590   1.400       .  A
C1586      C1587   1.397       .  A
C1586      H1591   1.084       .  S
C1587      C1588   1.408       .  A
C1587      O1592   1.372       .  S
C1588      C1589   1.406       .  A
C1589      C1590   1.387       .  A
C1589      H1593   1.084       .  S
C1590      O1594   1.373       .  S
O1592      H1596   0.992       .  S
O1594      H1595   0.992       .  S
C1597      C1598   1.402       .  A
C1597      C1602   1.413       .  A
C1598      C1599   1.395       .  A
C1598      H1603   1.084       .  S
C1599      C1600   1.404       .  A
C1599      O1604   1.372       .  S
C1600      C1601   1.393       .  A
C1601      C1602   1.390       .  A
C1601      H1605   1.085       .  S
C1602      O1606   1.373       .  S
O1604      H1608   0.992       .  S
O1606      H1607   0.992       .  S
C1609      C1610   1.403       .  A
C1609      C1614   1.425       .  A
C1610      C1611   1.413       .  A
C1610      H1615   1.083       .  S
C1611      C1612   1.421       .  A
C1611      O1616   1.372       .  S
C1612      C1613   1.399       .  A
C1613      C1614   1.410       .  A
C1613      H1617   1.084       .  S
C1614      O1618   1.372       .  S
O1616      H1620   0.992       .  S
O1618      H1619   0.992       .  S
C1621      C1622   1.405       .  A
C1621      C1626   1.415       .  A
C1622      C1623   1.407       .  A
C1622      H1627   1.083       .  S
C1623      C1624   1.411       .  A
C1623      O1628   1.372       .  S
C1624      C1625   1.400       .  A
C1625      C1626   1.404       .  A
C1625      H1629   1.084       .  S
C1626      O1630   1.372       .  S
O1628      H1632   0.992       .  S
O1630      H1631   0.992       .  S
C1633      C1634   1.405       .  A
C1633      C1638   1.415       .  A
C1634      C1635   1.412       .  A
C1634      H1639   1.083       .  S
C1635      C1636   1.413       .  A
C1635      O1640   1.370       .  S
C1636      C1637   1.404       .  A
C1637      C1638   1.411       .  A
C1637      H1641   1.084       .  S
C1638      O1642   1.372       .  S
O1640      H1644   0.992       .  S
O1642      H1643   0.992       .  S
C1645      C1646   1.399       .  A
C1645      C1650   1.421       .  A
C1646      C1647   1.404       .  A
C1646      H1651   1.084       .  S
C1647      C1648   1.420       .  A
C1647      O1652   1.372       .  S
C1648      C1649   1.398       .  A
C1649      C1650   1.405       .  A
C1649      H1653   1.083       .  S
C1650      O1654   1.372       .  S
O1652      H1656   0.992       .  S
O1654      H1655   0.992       .  S
C1657      C1658   1.396       .  A
C1657      C1662   1.413       .  A
C1658      C1659   1.392       .  A
C1658      H1663   1.084       .  S
C1659      C1660   1.412       .  A
C1659      O1664   1.372       .  S
C1660      C1661   1.391       .  A
C1661      C1662   1.386       .  A
C1661      H1665   1.084       .  S
C1662      O1666   1.374       .  S
O1664      H1668   0.992       .  S
O1666      H1667   0.991       .  S
C1669      C1670   1.407       .  A
C1669      C1674   1.399       .  A
C1670      C1671   1.392       .  A
C1670      H1675   1.084       .  S
C1671      C1672   1.403       .  A
C1671      O1676   1.374       .  S
C1672      C1673   1.407       .  A
C1673      C1674   1.386       .  A
C1673      H1677   1.077       .  S
C1674      O1678   1.372       .  S
O1676      H1680   0.992       .  S
O1678      H1679   0.992       .  S
C1681      C1682   1.415       .  A
C1681      C1686   1.406       .  A
C1682      C1683   1.406       .  A
C1682      H1687   1.083       .  S
C1683      C1684   1.404       .  A
C1683      O1688   1.371       .  S
C1684      C1685   1.414       .  A
C1685      C1686   1.406       .  A
C1685      H1689   1.084       .  S
C1686      O1690   1.371       .  S
O1688      H1692   0.992       .  S
O1690      H1691   0.992       .  S
C1693      C1694   1.416       .  A
C1693      C1698   1.405       .  A
C1694      C1695   1.412       .  A
C1694      H1699   1.084       .  S
C1695      C1696   1.408       .  A
C1695      O1700   1.371       .  S
C1696      C1697   1.419       .  A
C1697      C1698   1.410       .  A
C1697      H1701   1.083       .  S
C1698      O1702   1.371       .  S
O1700      H1704   0.992       .  S
O1702      H1703   0.992       .  S
C1705      C1706   1.409       .  A
C1705      C1710   1.401       .  A
C1706      C1707   1.405       .  A
C1706      H1711   1.084       .  S
C1707      C1708   1.409       .  A
C1707      O1712   1.371       .  S
C1708      C1709   1.416       .  A
C1709      C1710   1.405       .  A
C1709      H1713   1.083       .  S
C1710      O1714   1.371       .  S
O1712      H1716   0.992       .  S
O1714      H1715   0.992       .  S
C1717      C1718   1.401       .  A
C1717      C1722   1.418       .  A
C1718      C1719   1.410       .  A
C1718      H1723   1.083       .  S
C1719      C1720   1.421       .  A
C1719      O1724   1.372       .  S
C1720      C1721   1.403       .  A
C1721      C1722   1.411       .  A
C1721      H1725   1.083       .  S
C1722      O1726   1.372       .  S
O1724      H1728   0.992       .  S
O1726      H1727   0.992       .  S
C1729      C1730   1.398       .  A
C1729      C1734   1.408       .  A
C1730      C1731   1.393       .  A
C1730      H1735   1.084       .  S
C1731      C1732   1.411       .  A
C1731      O1736   1.372       .  S
C1732      C1733   1.397       .  A
C1733      C1734   1.388       .  A
C1733      H1737   1.084       .  S
C1734      O1738   1.370       .  S
O1736      H1740   0.992       .  S
O1738      H1739   0.992       .  S
C1741      C1742   1.393       .  A
C1741      C1746   1.402       .  A
C1742      C1743   1.388       .  A
C1742      H1747   1.084       .  S
C1743      C1744   1.417       .  A
C1743      O1748   1.372       .  S
C1744      C1745   1.405       .  A
C1745      C1746   1.392       .  A
C1745      H1749   1.083       .  S
C1746      O1750   1.371       .  S
O1748      H1752   0.992       .  S
O1750      H1751   0.992       .  S
C1753      C1754   1.400       .  A
C1753      C1758   1.419       .  A
C1754      C1755   1.409       .  A
C1754      H1759   1.083       .  S
C1755      C1756   1.423       .  A
C1755      O1760   1.372       .  S
C1756      C1757   1.404       .  A
C1757      C1758   1.413       .  A
C1757      H1761   1.083       .  S
C1758      O1762   1.372       .  S
O1760      H1764   0.992       .  S
O1762      H1763   0.992       .  S
C1765      C1766   1.405       .  A
C1765      C1770   1.412       .  A
C1766      C1767   1.408       .  A
C1766      H1771   1.080       .  S
C1767      C1768   1.409       .  A
C1767      O1772   1.371       .  S
C1768      C1769   1.409       .  A
C1769      C1770   1.415       .  A
C1769      H1773   1.083       .  S
C1770      O1774   1.371       .  S
O1772      H1776   0.992       .  S
O1774      H1775   0.992       .  S
C1777      C1778   1.410       .  A
C1777      C1782   1.410       .  A
C1778      C1779   1.402       .  A
C1778      H1783   1.084       .  S
C1779      C1780   1.404       .  A
C1779      O1784   1.372       .  S
C1780      C1781   1.406       .  A
C1781      C1782   1.408       .  A
C1781      H1785   1.084       .  S
C1782      O1786   1.371       .  S
O1784      H1788   0.992       .  S
O1786      H1787   0.992       .  S
C1789      C1790   1.404       .  A
C1789      C1794   1.423       .  A
C1790      C1791   1.408       .  A
C1790      H1795   1.083       .  S
C1791      C1792   1.412       .  A
C1791      O1796   1.372       .  S
C1792      C1793   1.396       .  A
C1793      C1794   1.405       .  A
C1793      H1797   1.084       .  S
C1794      O1798   1.372       .  S
O1796      H1800   0.991       .  S
O1798      H1799   0.992       .  S
C1801      C1802   1.400       .  A
C1801      C1806   1.398       .  A
C1802      C1803   1.395       .  A
C1802      H1807   1.084       .  S
C1803      C1804   1.408       .  A
C1803      O1808   1.373       .  S
C1804      C1805   1.408       .  A
C1805      C1806   1.388       .  A
C1805      H1809   1.083       .  S
C1806      O1810   1.373       .  S
O1808      H1812   0.992       .  S
O1810      H1811   0.992       .  S
C1813      C1814   1.401       .  A
C1813      C1818   1.415       .  A
C1814      C1815   1.394       .  A
C1814      H1819   1.084       .  S
C1815      C1816   1.404       .  A
C1815      O1820   1.372       .  S
C1816      C1817   1.390       .  A
C1817      C1818   1.387       .  A
C1817      H1821   1.085       .  S
C1818      O1822   1.373       .  S
O1820      H1824   0.992       .  S
O1822      H1823   0.992       .  S
