geometry optimzed in LAMMPS
_audit_creation_date              2020-11-30 
_audit_creation_method            'lammps2cif' 
_symmetry_space_group_name_H-M    'P1' 
_symmetry_Int_Tables_number       1 
_symmetry_cell_setting            triclinic 
loop_ 
_symmetry_equiv_pos_as_xyz 
  x,y,z 
_cell_length_a                    33.51707442847045 
_cell_length_b                    61.055963795943164 
_cell_length_c                    40.93652466865015 
_cell_angle_alpha                 89.60402981113887 
_cell_angle_beta                  91.49140122339765 
_cell_angle_gamma                 90.02415754763288 
loop_ 
_atom_site_label 
_atom_site_type_symbol 
_atom_site_fract_x 
_atom_site_fract_y 
_atom_site_fract_z 
_atom_site_charge 
O1          O  0.02849813  0.90024983  0.04348495    -0.79340
O2          O  0.34992686  0.87783588  0.05004306    -0.64020
O3          O  0.45879991  0.88541780  0.06801849    -1.10630
C4          C  0.47450692  0.82195156  0.00160855     1.07550
O5          O  0.35145169  0.84179688  0.05536159    -0.77230
O6          O  0.41889423  0.82031467  0.06725719    -0.64810
Ni7        Ni  0.48364208  0.91328845  0.06415095     1.34870
C8          C  0.44732517  0.82672310  0.08569881     0.86290
O9          O  0.39147650  0.90287148  0.09113039    -0.77770
O10         O  0.44286722  0.92678302  0.08870517    -0.88050
C11         C  0.33488695  0.86025009  0.06003838     0.85860
O12         O  0.45719644  0.92347822  0.02368108    -0.66250
O13         O  0.43665701  0.81928913  0.00225870    -0.85540
C14         C  0.42065728  0.92097497  0.01444555     0.86690
C15         C  0.41035327  0.91989958  0.10043439     1.08260
H16         H  0.41846784  0.86657451  0.00573719     0.40060
O17         O  0.42088164  0.86066203  0.02765286    -1.08200
O18         O  0.46979364  0.84275922  0.07890563    -0.64850
Ni19       Ni  0.47573759  0.86183577  0.04163872     1.26350
O20         O  0.39922038  0.90550315  0.02553976    -0.65080
O21         O  0.49271700  0.83772353  0.01564070    -0.77370
C22         C  0.04574920  0.88369439  0.05707324     0.86080
O23         O  0.02881988  0.86518684  0.05709189    -0.64540
Ni24       Ni  0.39507842  0.83228195  0.02830647     1.27450
Ni25       Ni  0.40439601  0.88241094  0.05841165     1.26060
H26         H  0.46281319  0.88126977  0.09069012     0.40620
O27         O  0.09983900  0.90403811  0.07999717    -0.79340
O28         O  0.28325719  0.87997996  0.08411353    -0.64020
O29         O  0.17327437  0.88659868  0.06597383    -1.10630
C30         C  0.16111748  0.83072340  0.14627413     1.07550
O31         O  0.28157456  0.84393860  0.08766590    -0.77230
O32         O  0.21462976  0.82267749  0.08204302    -0.64810
Ni33       Ni  0.15042999  0.91501417  0.06626889     1.34870
C34         C  0.18884065  0.82867383  0.06079375     0.86290
O35         O  0.23989890  0.90038263  0.03824640    -0.77770
O36         O  0.19799653  0.92726437  0.04919100    -0.88050
C37         C  0.29813144  0.86146875  0.07837932     0.85860
O38         O  0.16886939  0.92072268  0.11031754    -0.66250
O39         O  0.19890509  0.82877224  0.14686196    -0.85540
C40         C  0.20548725  0.92037959  0.11954593     0.86690
C41         C  0.21999842  0.91708036  0.02964406     1.08260
H42         H  0.21466885  0.87380449  0.13164368     0.40060
O43         O  0.21229843  0.86588986  0.11133336    -1.08200
O44         O  0.16535759  0.84462016  0.06413026    -0.64850
Ni45       Ni  0.15720504  0.86587355  0.09711373     1.26350
O46         O  0.23170677  0.90927488  0.10468106    -0.65080
O47         O  0.14147140  0.84392576  0.12777829    -0.77370
C48         C  0.08545030  0.88531364  0.07276752     0.86080
O49         O  0.10388986  0.86762497  0.08009358    -0.64540
Ni50       Ni  0.23905353  0.83808219  0.11739947     1.27450
Ni51       Ni  0.22821785  0.88396913  0.07582114     1.26060
H52         H  0.16834208  0.88105128  0.04417831     0.40620
O53         O  0.13492142  0.52959599  0.12079946    -0.79340
O54         O  0.13819331  0.49713081  0.26660273    -0.64020
O55         O  0.15356033  0.50288235  0.17554028    -1.10630
C56         C  0.03200022  0.46188464  0.16358009     1.07550
O57         O  0.11386255  0.46309641  0.26551865    -0.77230
O58         O  0.12060820  0.44481331  0.20599443    -0.64810
Ni59       Ni  0.17204185  0.53026130  0.15728122     1.34870
C60         C  0.13090977  0.44699076  0.17663043     0.86290
O61         O  0.19821762  0.51394720  0.23400748    -0.77770
O62         O  0.21212459  0.53533237  0.19121276    -0.88050
C63         C  0.13062453  0.47902409  0.28023027     0.85860
O64         O  0.13633889  0.54840873  0.17966282    -0.66250
O65         O  0.04272212  0.45367492  0.19112220    -0.85540
C66         C  0.12131145  0.54571141  0.20740410     0.86690
C67         C  0.21858222  0.52916399  0.22059697     1.08260
H68         H  0.07455510  0.49871107  0.21576523     0.40060
O69         O  0.09502754  0.48856119  0.20944564    -1.08200
O70         O  0.12330775  0.46346183  0.15855399    -0.64850
Ni71       Ni  0.10077728  0.49165146  0.16356512     1.26350
O72         O  0.12322045  0.52839174  0.22448055    -0.65080
O73         O  0.04854071  0.47910803  0.15193840    -0.77370
C74         C  0.11683037  0.51443599  0.10551737     0.86080
O75         O  0.10836291  0.49610766  0.11822488    -0.64540
Ni76       Ni  0.07983648  0.46043605  0.22692488     1.27450
Ni77       Ni  0.14700334  0.50054741  0.22145218     1.26060
H78         H  0.17327821  0.49211347  0.16987086     0.40620
O79         O  0.06080264  0.53650858  0.99861776    -0.79340
O80         O  0.48867496  0.49451238  0.86830060    -0.64020
O81         O  0.01674465  0.50931847  0.95557664    -1.10630
C82         C  0.12278516  0.46187244  0.95062136     1.07550
O83         O  0.02853725  0.46596346  0.85846184    -0.77230
O84         O  0.02004568  0.45241172  0.92256099    -0.64810
Ni85       Ni  0.01591223  0.53949588  0.96793898     1.34870
C86         C  0.52126596  0.45488530  0.95340491     0.86290
O87         O  0.45041776  0.51517747  0.91499679    -0.77770
O88         O  0.46887431  0.54589901  0.94098396    -0.88050
C89         C  0.50130529  0.47948256  0.85011132     0.85860
O90         O  0.05032478  0.54832463  0.93367991    -0.66250
O91         O  0.10019628  0.45171298  0.93054363    -0.85540
C92         C  0.04395623  0.54434220  0.90357355     0.86690
C93         C  0.44366377  0.53472695  0.92421819     1.08260
H94         H  0.07354623  0.50010081  0.89708369     0.40060
O95         O  0.05669218  0.49078109  0.91005419    -1.08200
O96         O  0.04279254  0.46903480  0.96824741    -0.64850
Ni97       Ni  0.06792148  0.49584692  0.95503118     1.26350
O98         O  0.02171370  0.52900094  0.89320222    -0.65080
O99         O  0.11924601  0.48223122  0.95502097    -0.77370
C100        C  0.07575420  0.51964914  0.01274549     0.86080
O101        O  0.07669724  0.50108382  0.99964299    -0.64540
Ni102      Ni  0.06304122  0.46098086  0.89599617     1.27450
Ni103      Ni  0.00267097  0.50235827  0.91184071     1.26060
H104        H  0.49930832  0.50142223  0.96994110     0.40620
O105        O  0.33035252  0.53558700  0.63311635    -0.79340
O106        O  0.43281211  0.49877786  0.75312391    -0.64020
O107        O  0.39113784  0.51189651  0.66811739    -1.10630
C108        C  0.30391816  0.45305896  0.68746090     1.07550
O109        O  0.43019842  0.46253828  0.74868712    -0.77230
O110        O  0.40979222  0.44950931  0.68695451    -0.64810
Ni111      Ni  0.37974381  0.54203212  0.65667531     1.34870
C112        C  0.40089287  0.45469259  0.65760311     0.86290
O113        O  0.45654449  0.52532632  0.70656805    -0.77770
O114        O  0.42854501  0.55259944  0.67716620    -0.88050
C115        C  0.44185882  0.47979766  0.76314005     0.85860
O116        O  0.35075531  0.54876691  0.69490102    -0.66250
O117        O  0.33243991  0.44517377  0.70488037    -0.85540
C118        C  0.35883144  0.54340082  0.72433123     0.86690
C119        C  0.45676475  0.54460234  0.69486598     1.08260
H120        H  0.35040639  0.49132934  0.73011817     0.40060
O121        O  0.36879257  0.48598972  0.71422343    -1.08200
O122        O  0.37648278  0.46983919  0.64961183    -0.64850
Ni123      Ni  0.34701952  0.49217408  0.67170095     1.26350
O124        O  0.38286176  0.52812144  0.73256489    -0.65080
O125        O  0.30334952  0.47247245  0.67617305    -0.77370
C126        C  0.31741671  0.51829040  0.61939403     0.86080
O127        O  0.32626761  0.49929573  0.62953667    -0.64540
Ni128      Ni  0.38091597  0.45590000  0.72533938     1.27450
Ni129      Ni  0.41268252  0.50577657  0.71078398     1.26060
H130        H  0.40954199  0.50640694  0.65235037     0.40620
O131        O  0.22509334  0.53097098  0.52661388    -0.78060
O132        O  0.17693925  0.49671001  0.38430972    -0.64020
O133        O  0.19828445  0.50663614  0.47406039    -1.10630
C134        C  0.31387197  0.46464229  0.45799129     1.07550
O135        O  0.19498779  0.46156663  0.38507482    -0.77230
O136        O  0.20822895  0.44951605  0.44909232    -0.64810
Ni137      Ni  0.18998805  0.53600673  0.48929319     1.34870
C138        C  0.21471552  0.45349244  0.47913816     0.86290
O139        O  0.13443326  0.51495915  0.42965435    -0.77770
O140        O  0.15220704  0.54536705  0.45498956    -0.88050
C141        C  0.17765212  0.47797051  0.37158289     0.85860
O142        O  0.23238558  0.54547088  0.46299012    -0.66250
O143        O  0.28921500  0.45344878  0.44069076    -0.85540
C144        C  0.23137655  0.54324087  0.43212090     0.86690
C145        C  0.13000287  0.53525273  0.43451495     1.08260
H146        H  0.25516018  0.49759874  0.41325127     0.40060
O147        O  0.23848861  0.48926196  0.42768828    -1.08200
O148        O  0.23611763  0.46910968  0.48964639    -0.64850
Ni149      Ni  0.25317426  0.49613324  0.47138353     1.26350
O150        O  0.21020127  0.52918710  0.41670620    -0.65080
O151        O  0.30621467  0.48404569  0.46759657    -0.77370
C152        C  0.25405508  0.51826675  0.53393731     0.86080
O153        O  0.26767720  0.50398651  0.51490188    -0.64540
Ni154      Ni  0.24111426  0.45927907  0.41458647     1.27450
Ni155      Ni  0.18646223  0.50189438  0.42904825     1.26060
H156        H  0.18230388  0.49678938  0.48693590     0.40620
O157        O  0.28208424  0.34097474  0.57226882    -0.79340
O158        O  0.09920786  0.36594623  0.57668653    -0.64020
O159        O  0.20831418  0.35966447  0.55934434    -1.10630
C160        C  0.22605149  0.41228759  0.64328567     1.07550
O161        O  0.10042015  0.40170784  0.58378290    -0.77230
O162        O  0.16754814  0.42232563  0.57787790    -0.64810
Ni163      Ni  0.23021118  0.33098748  0.55802098     1.34870
C164        C  0.19350265  0.41720761  0.55750134     0.86290
O165        O  0.14017893  0.34746025  0.52968338    -0.77770
O166        O  0.18125800  0.31979885  0.54022641    -0.88050
C167        C  0.08356604  0.38459009  0.57282440     0.85860
O168        O  0.21399563  0.32402286  0.60173090    -0.66250
O169        O  0.18842291  0.41514606  0.64254830    -0.85540
C170        C  0.17777471  0.32431489  0.61057451     0.86690
C171        C  0.15906938  0.33077949  0.52065567     1.08260
H172        H  0.16981904  0.37006527  0.62546090     0.40060
O173        O  0.17168944  0.37873679  0.60574074    -1.08200
O174        O  0.21791376  0.40158795  0.56115000    -0.64850
Ni175      Ni  0.22644506  0.37875748  0.59237258     1.26350
O176        O  0.15108720  0.33589002  0.59574448    -0.65080
O177        O  0.24439365  0.39900250  0.62510041    -0.77370
C178        C  0.29629911  0.35989947  0.56629148     0.86080
O179        O  0.27902179  0.37728733  0.57567550    -0.64540
Ni180      Ni  0.14575526  0.40653280  0.61316900     1.27450
Ni181      Ni  0.15382363  0.36225106  0.56866349     1.26060
H182        H  0.21250574  0.36610880  0.53807169     0.40620
O183        O  0.15977865  0.59765953  0.79943675    -0.79340
O184        O  0.48184414  0.61938857  0.80515567    -0.64020
O185        O  0.08883267  0.61940980  0.77593791    -1.10630
C186        C  0.09913697  0.67076239  0.85844914     1.07550
O187        O  0.47754463  0.65553796  0.80301802    -0.77230
O188        O  0.04552944  0.67516587  0.77755692    -0.64810
Ni189      Ni  0.11562920  0.59179367  0.76949987     1.34870
C190        C  0.08210745  0.67511099  0.76974489     0.86290
O191        O  0.01752254  0.59731922  0.75754383    -0.77770
O192        O  0.07410612  0.58248368  0.73932844    -0.88050
C193        C  0.46400210  0.63702663  0.81206077     0.85860
O194        O  0.09348177  0.57563997  0.80458168    -0.66250
O195        O  0.07265704  0.68028735  0.84072407    -0.85540
C196        C  0.06795229  0.58089681  0.82530360     0.86690
C197        C  0.03629516  0.58454103  0.73896172     1.08260
H198        H  0.04684261  0.63326978  0.84237596     0.40060
O199        O  0.05090852  0.63918319  0.82075253    -1.08200
O200        O  0.10808988  0.66293251  0.78420187    -0.64850
Ni201      Ni  0.10536500  0.63714261  0.81229565     1.26350
O202        O  0.04410132  0.59680543  0.82179954    -0.65080
O203        O  0.11739609  0.65360288  0.85008209    -0.77370
C204        C  0.17640332  0.61509445  0.80952854     0.86080
O205        O  0.16038242  0.63364873  0.80535116    -0.64540
Ni206      Ni  0.02668482  0.66729311  0.82017190     1.27450
Ni207      Ni  0.03427877  0.61863894  0.78902953     1.26060
H208        H  0.09025238  0.62776227  0.75587215     0.40620
O209        O  0.28335606  0.40165108  0.04170179    -0.79340
O210        O  0.10318577  0.37916449  0.04874340    -0.64020
O211        O  0.21422641  0.38324325  0.06171413    -1.10630
C212        C  0.22253015  0.33095636  0.97715534     1.07550
O213        O  0.09920980  0.34408245  0.03597421    -0.77230
O214        O  0.16552324  0.32389727  0.04634847    -0.64810
Ni215      Ni  0.23935294  0.41117174  0.06593972     1.34870
C216        C  0.19617790  0.32768544  0.06384262     0.86290
O217        O  0.15037350  0.39608116  0.09447639    -0.77770
O218        O  0.19835773  0.42178291  0.09310633    -0.88050
C219        C  0.08550837  0.36094584  0.04969210     0.85860
O220        O  0.21497817  0.42351341  0.02727201    -0.66250
O221        O  0.18572679  0.32693178  0.98129035    -0.85540
C222        C  0.17882711  0.42226115  0.01750519     0.86690
C223        C  0.16989113  0.41188949  0.10684985     1.08260
H224        H  0.16694852  0.37466153  0.99654669     0.40060
O225        O  0.17129703  0.36560427  0.01576324    -1.08200
O226        O  0.22341551  0.34109660  0.05662090    -0.64850
Ni227      Ni  0.22776907  0.36497615  0.02652409     1.26350
O228        O  0.15415557  0.40854157  0.02911579    -0.65080
O229        O  0.24173179  0.34600952  0.99186375    -0.77370
C230        C  0.29928951  0.38341541  0.04890854     0.86080
O231        O  0.28225745  0.36570962  0.04043687    -0.64540
Ni232      Ni  0.14408760  0.33782880  0.00867565     1.27450
Ni233      Ni  0.15893502  0.38166809  0.05457657     1.26060
H234        H  0.22021116  0.37577168  0.08214518     0.40620
O235        O  0.35375814  0.39911337  0.08002995    -0.79340
O236        O  0.03190543  0.37714024  0.07556397    -0.64020
O237        O  0.42296029  0.38358887  0.05683273    -1.10630
C238        C  0.40664655  0.32124398  0.12697030     1.07550
O239        O  0.03177736  0.34098744  0.07291931    -0.77230
O240        O  0.46460510  0.31997300  0.05979280    -0.64810
Ni241      Ni  0.39775104  0.41155064  0.05768946     1.34870
C242        C  0.43485770  0.32575224  0.04227621     0.86290
O243        O  0.99028003  0.40093488  0.03238284    -0.77770
O244        O  0.43801676  0.42431331  0.03163131    -0.88050
C245        C  0.04785196  0.35952459  0.06710897     0.85860
O246        O  0.42411170  0.42325576  0.09691671    -0.66250
O247        O  0.44425189  0.31785781  0.12463670    -0.85540
C248        C  0.46024507  0.42069845  0.10714760     0.86690
C249        C  0.47118039  0.41751709  0.02124205     1.08260
H250        H  0.46425070  0.36607417  0.12052358     0.40060
O251        O  0.46130760  0.35984641  0.09896544    -1.08200
O252        O  0.41098646  0.34084494  0.04991704    -0.64850
Ni253      Ni  0.40617753  0.36085587  0.08565352     1.26350
O254        O  0.48172773  0.40480419  0.09787809    -0.65080
O255        O  0.38905355  0.33768599  0.11395116    -0.77370
C256        C  0.33691730  0.38223158  0.06756534     0.86080
O257        O  0.35315311  0.36367770  0.07046028    -0.64540
Ni258      Ni  0.48695572  0.33133514  0.09927946     1.27450
Ni259      Ni  0.47739478  0.38106556  0.06659610     1.26060
H260        H  0.41904591  0.37864303  0.03460455     0.40620
O261        O  0.21751909  0.65302523  0.30506789    -0.79340
O262        O  0.39520426  0.62986043  0.30685235    -0.64020
O263        O  0.28650540  0.63241184  0.27970719    -1.10630
C264        C  0.27937964  0.57847615  0.36231592     1.07550
O265        O  0.39518090  0.59410183  0.30001309    -0.77230
O266        O  0.32456944  0.56998414  0.28562863    -0.64810
Ni267      Ni  0.26082831  0.66082680  0.27666246     1.34870
C268        C  0.28809417  0.57192477  0.27609668     0.86290
O269        O  0.35767928  0.65365998  0.26147579    -0.77770
O270        O  0.30159675  0.67206854  0.24808868    -0.88050
C271        C  0.41218747  0.61153575  0.31036235     0.85860
O272        O  0.28496915  0.67453660  0.31407391    -0.66250
O273        O  0.31158123  0.57087299  0.35119484    -0.85540
C274        C  0.31413888  0.66910097  0.33260232     0.86690
C275        C  0.33893466  0.66849893  0.24557853     1.08260
H276        H  0.33079093  0.61625748  0.34497512     0.40060
O277        O  0.32614973  0.61053948  0.32325040    -1.08200
O278        O  0.26622650  0.58773407  0.28523725    -0.64850
Ni279      Ni  0.27144565  0.61282861  0.31423552     1.26350
O280        O  0.33743951  0.65338281  0.32649912    -0.65080
O281        O  0.25983972  0.59464993  0.35045435    -0.77370
C282        C  0.20104285  0.63494772  0.31240615     0.86080
O283        O  0.21666748  0.61676153  0.30611102    -0.64540
Ni284      Ni  0.35143141  0.58263043  0.32381120     1.27450
Ni285      Ni  0.34180927  0.63198936  0.29234456     1.26060
H286        H  0.28317215  0.62518085  0.25889748     0.40620
O287        O  0.14694791  0.65284269  0.33676600    -0.79340
O288        O  0.46832735  0.62945355  0.33251404    -0.64020
O289        O  0.07714997  0.63168101  0.36138383    -1.10630
C290        C  0.08519741  0.58093315  0.27752454     1.07550
O291        O  0.46727907  0.59338727  0.33618229    -0.77230
O292        O  0.03605426  0.57255251  0.35657611    -0.64810
Ni293      Ni  0.10374998  0.65969418  0.36551845     1.34870
C294        C  0.07190699  0.57429889  0.36712816     0.86290
O295        O  0.00634101  0.65244118  0.37959236    -0.77770
O296        O  0.06327003  0.66983027  0.39429873    -0.88050
C297        C  0.45119652  0.61127065  0.32693606     0.85860
O298        O  0.07976914  0.67438128  0.32877035    -0.66250
O299        O  0.05688365  0.57116777  0.29171408    -0.85540
C300        C  0.05110927  0.66926122  0.30964908     0.86690
C301        C  0.02589935  0.66645509  0.39634662     1.08260
H302        H  0.03321650  0.61722379  0.29494655     0.40060
O303        O  0.03782804  0.61109943  0.31654661    -1.08200
O304        O  0.09640320  0.58798303  0.35522281    -0.64850
Ni305      Ni  0.09255793  0.61337681  0.32636449     1.26350
O306        O  0.02724563  0.65363379  0.31499324    -0.65080
O307        O  0.10448130  0.59700756  0.28918724    -0.77370
C308        C  0.16328916  0.63488960  0.32926523     0.86080
O309        O  0.14729832  0.61673956  0.33536762    -0.64540
Ni310      Ni  0.01366154  0.58284957  0.31553193     1.27450
Ni311      Ni  0.02187950  0.63147054  0.34809545     1.26060
H312        H  0.08017992  0.62392217  0.38195216     0.40620
O313        O  0.35104027  0.34587419  0.53545866    -0.79340
O314        O  0.02963180  0.36881353  0.54464360    -0.64020
O315        O  0.42153599  0.36070117  0.56077447    -1.10630
C316        C  0.40241391  0.42514015  0.49496883     1.07550
O317        O  0.02844779  0.40476864  0.55016977    -0.77230
O318        O  0.46089505  0.42589508  0.56117915    -0.64810
Ni319      Ni  0.39716283  0.33267986  0.55626136     1.34870
C320        C  0.43289580  0.41938978  0.57890582     0.86290
O321        O  0.48969333  0.34354372  0.58542698    -0.77770
O322        O  0.43915322  0.31910503  0.58139781    -0.88050
C323        C  0.04535315  0.38625655  0.55475599     0.85860
O324        O  0.42226206  0.32313976  0.51593197    -0.66250
O325        O  0.44032838  0.42781989  0.49616202    -0.85540
C326        C  0.45854870  0.32587037  0.50746183     0.86690
C327        C  0.47117625  0.32647352  0.59459615     1.08260
H328        H  0.45923482  0.38041612  0.49924433     0.40060
O329        O  0.45759677  0.38606647  0.52114766    -1.08200
O330        O  0.41036821  0.40331249  0.57175208    -0.64850
Ni331      Ni  0.40319624  0.38456503  0.53431830     1.26350
O332        O  0.48007584  0.34124521  0.51934158    -0.65080
O333        O  0.38488939  0.40901601  0.50830162    -0.77370
C334        C  0.33440650  0.36209143  0.54947054     0.86080
O335        O  0.35073541  0.38078207  0.54914737    -0.64540
Ni336      Ni  0.48328491  0.41450729  0.52256453     1.27450
Ni337      Ni  0.47552246  0.36405721  0.55214415     1.26060
H338        H  0.41828084  0.36455690  0.58340940     0.40620
O339        O  0.23172319  0.59511642  0.83128791    -0.79340
O340        O  0.40955142  0.61695752  0.83064449    -0.64020
O341        O  0.30304786  0.61323882  0.85950595    -1.10630
C342        C  0.29090125  0.67303867  0.78674830     1.07550
O343        O  0.41128762  0.65194879  0.84356650    -0.77230
O344        O  0.34274554  0.67401227  0.86574595    -0.64810
Ni345      Ni  0.27631339  0.58517591  0.85896784     1.34870
C346        C  0.30673401  0.67176153  0.87482641     0.86290
O347        O  0.37465318  0.58964007  0.87224610    -0.77770
O348        O  0.31856176  0.57191842  0.88581969    -0.88050
C349        C  0.42656501  0.63543006  0.82954916     0.85860
O350        O  0.29833208  0.57289008  0.82070674    -0.66250
O351        O  0.32256770  0.68020454  0.80078430    -0.85540
C352        C  0.32611868  0.57905619  0.80246822     0.86690
C353        C  0.35651193  0.57413551  0.88652479     1.08260
H354        H  0.34265871  0.63404029  0.79669687     0.40060
O355        O  0.33969902  0.63794448  0.81934600    -1.08200
O356        O  0.28312021  0.65781566  0.86170958    -0.64850
Ni357      Ni  0.28565525  0.63526112  0.82845914     1.26350
O358        O  0.34884532  0.59516568  0.80889237    -0.65080
O359        O  0.27203741  0.65594386  0.79528264    -0.77370
C360        C  0.21501393  0.61367515  0.82686387     0.86080
O361        O  0.23131446  0.63115697  0.83630451    -0.64540
Ni362      Ni  0.36513367  0.66568841  0.82411833     1.27450
Ni363      Ni  0.35722330  0.61403495  0.84596292     1.26060
H364        H  0.30196981  0.61903127  0.88136736     0.40620
O365        O  0.04165047  0.71035889  0.13379177    -0.79340
O366        O  0.45346081  0.74962527  0.25731787    -0.64020
O367        O  0.48933572  0.73620738  0.17191480    -1.10630
C368        C  0.08472585  0.79014229  0.18976831     1.07550
O369        O  0.47204057  0.78460126  0.26120284    -0.77230
O370        O  0.47547829  0.79455285  0.19447703    -0.64810
Ni371      Ni  0.49558758  0.70563761  0.16153856     1.34870
C372        C  0.48364888  0.79113580  0.16471550     0.86290
O373        O  0.42255996  0.72630550  0.20853036    -0.77770
O374        O  0.44859199  0.69665141  0.18550028    -0.88050
C375        C  0.45589846  0.76750357  0.27269530     0.85860
O376        O  0.02945298  0.69955901  0.19902303    -0.66250
O377        O  0.05578189  0.79964603  0.20303208    -0.85540
C378        C  0.02102486  0.70395941  0.22838112     0.86690
C379        C  0.42071806  0.70630534  0.20047925     1.08260
H380        H  0.03654645  0.75267623  0.23566167     0.40060
O381        O  0.01884589  0.75935854  0.21951409    -1.08200
O382        O  0.51011078  0.77753208  0.15595999    -0.64850
Ni383      Ni  0.03737467  0.75302568  0.17692915     1.26350
O384        O  0.99599154  0.71847163  0.23603810    -0.65080
O385        O  0.08471098  0.76991139  0.18320416    -0.77370
C386        C  0.05905803  0.72718971  0.12208955     0.86080
O387        O  0.05567162  0.74604873  0.13443801    -0.64540
Ni388      Ni  0.01299891  0.78990025  0.22992876     1.27450
Ni389      Ni  0.47040908  0.74287230  0.21447859     1.26060
H390        H  0.47161739  0.74274673  0.15560406     0.40620
O391        O  0.14908967  0.71419942  0.02868014    -0.79340
O392        O  0.18783702  0.75124323  0.88449588    -0.64020
O393        O  0.17626490  0.73989637  0.97605733    -1.10630
C394        C  0.06055245  0.78336205  0.96330344     1.07550
O395        O  0.17090549  0.78642807  0.88709964    -0.77230
O396        O  0.16585465  0.79777779  0.95189713    -0.64810
Ni397      Ni  0.18403114  0.71020851  0.99158904     1.34870
C398        C  0.16227234  0.79348580  0.98208012     0.86290
O399        O  0.23565572  0.73111672  0.92874399    -0.77770
O400        O  0.22171360  0.70147116  0.95805248    -0.88050
C401        C  0.18244954  0.76989018  0.87113802     0.85860
O402        O  0.14095211  0.70074162  0.96424835    -0.66250
O403        O  0.08399992  0.79476511  0.94603704    -0.85540
C404        C  0.13962258  0.70374456  0.93348520     0.86690
C405        C  0.24205244  0.71113147  0.93629558     1.08260
H406        H  0.11382546  0.75053950  0.91696483     0.40060
O407        O  0.13228194  0.75850383  0.93096656    -1.08200
O408        O  0.14156511  0.77785209  0.99293725    -0.64850
Ni409      Ni  0.12154916  0.75123872  0.97493790     1.26350
O410        O  0.15868184  0.71847071  0.91833306    -0.65080
O411        O  0.06861682  0.76375870  0.97228227    -0.77370
C412        C  0.12200791  0.72762242  0.03700181     0.86080
O413        O  0.11018421  0.74331911  0.01887851    -0.64540
Ni414      Ni  0.12878742  0.78877024  0.91836455     1.27450
Ni415      Ni  0.18402766  0.74524731  0.93026067     1.26060
H416        H  0.19390663  0.74935792  0.98864225     0.40620
O417        O  0.23583619  0.71736898  0.61743529    -0.79340
O418        O  0.19293383  0.75493869  0.75819193    -0.64020
O419        O  0.20636168  0.74358788  0.66759757    -1.10630
C420        C  0.31878923  0.78890063  0.67869101     1.07550
O421        O  0.21156459  0.78993554  0.75768013    -0.77230
O422        O  0.21290110  0.80154206  0.69121340    -0.64810
Ni423      Ni  0.20100924  0.71344688  0.65417500     1.34870
C424        C  0.21685452  0.79768583  0.66091324     0.86290
O425        O  0.14668243  0.73521155  0.71361705    -0.77770
O426        O  0.16336406  0.70496218  0.68745367    -0.88050
C427        C  0.19918645  0.77293782  0.77256417     0.85860
O428        O  0.24418266  0.70507269  0.68275674    -0.66250
O429        O  0.29469562  0.80000501  0.69549276    -0.85540
C430        C  0.24400929  0.70830860  0.71341908     0.86690
C431        C  0.14163500  0.71504052  0.70746049     1.08260
H432        H  0.26804753  0.75497999  0.72650531     0.40060
O433        O  0.24937452  0.76283734  0.71239068    -1.08200
O434        O  0.23822044  0.78234153  0.65018960    -0.64850
Ni435      Ni  0.25997359  0.75587308  0.66833904     1.26350
O436        O  0.22337396  0.72285345  0.72704993    -0.65080
O437        O  0.31208135  0.76910646  0.67054179    -0.77370
C438        C  0.26032766  0.73175296  0.60754635     0.86080
O439        O  0.27071512  0.74826306  0.62429918    -0.64540
Ni440      Ni  0.25156354  0.79314829  0.72443660     1.27450
Ni441      Ni  0.19792937  0.74928468  0.71289250     1.26060
H442        H  0.18820585  0.75244217  0.65437363     0.40620
O443        O  0.32824250  0.71260634  0.50647084    -0.79340
O444        O  0.41634653  0.74888142  0.38088993    -0.64020
O445        O  0.38320238  0.73690291  0.46775224    -1.10630
C446        C  0.29193336  0.79298481  0.44936881     1.07550
O447        O  0.40668044  0.78492165  0.37984712    -0.77230
O448        O  0.39981742  0.79654505  0.44508093    -0.64810
Ni449      Ni  0.37405463  0.70664039  0.47958341     1.34870
C450        C  0.39161205  0.79312563  0.47487468     0.86290
O451        O  0.44683467  0.72481224  0.42968320    -0.77770
O452        O  0.42035290  0.69656370  0.45680750    -0.88050
C453        C  0.41781013  0.76728668  0.36662291     0.85860
O454        O  0.34020286  0.70005071  0.44226645    -0.66250
O455        O  0.32008369  0.80168805  0.43377747    -0.85540
C456        C  0.34761537  0.70437468  0.41257661     0.86690
C457        C  0.44792638  0.70527887  0.44031452     1.08260
H458        H  0.33564154  0.75481786  0.40481616     0.40060
O459        O  0.35465173  0.76089961  0.42037957    -1.08200
O460        O  0.36619982  0.77896603  0.48385577    -0.64850
Ni461      Ni  0.33704209  0.75508601  0.46356021     1.26350
O462        O  0.37204911  0.71907004  0.40405531    -0.65080
O463        O  0.29130659  0.77305891  0.45800038    -0.77370
C464        C  0.31506301  0.73004606  0.51924991     0.86080
O465        O  0.32024987  0.74876872  0.50668238    -0.64540
Ni466      Ni  0.36373890  0.79117463  0.40886558     1.27450
Ni467      Ni  0.40087560  0.74276594  0.42443433     1.26060
H468        H  0.40220070  0.74303412  0.48332900     0.40620
O469        O  0.34804534  0.90604943  0.59231103    -0.79340
O470        O  0.02590012  0.88106409  0.58166838    -0.64020
O471        O  0.41675052  0.88994769  0.56699118    -1.10630
C472        C  0.40201100  0.82785674  0.63735621     1.07550
O473        O  0.02326145  0.84491278  0.57986610    -0.77230
O474        O  0.45455423  0.82413813  0.57113908    -0.64810
Ni475      Ni  0.39366267  0.91822962  0.57075645     1.34870
C476        C  0.42628012  0.83057121  0.55238554     0.86290
O477        O  0.98317911  0.90561387  0.54029344    -0.77770
O478        O  0.43431521  0.93085090  0.54484258    -0.88050
C479        C  0.04021043  0.86299793  0.57333541     0.85860
O480        O  0.42266343  0.92827073  0.61030381    -0.66250
O481        O  0.43974080  0.82513727  0.63661032    -0.85540
C482        C  0.45995881  0.92578117  0.61750255     0.86690
C483        C  0.46481426  0.92293574  0.53131084     1.08260
H484        H  0.45883393  0.87186568  0.62905379     0.40060
O485        O  0.45547507  0.86543186  0.60765640    -1.08200
O486        O  0.40471620  0.84715373  0.55821602    -0.64850
Ni487      Ni  0.40013400  0.86688429  0.59473629     1.26350
O488        O  0.47991057  0.90999950  0.60588251    -0.65080
O489        O  0.38347121  0.84320590  0.62223466    -0.77370
C490        C  0.32979361  0.88941603  0.57995332     0.86080
O491        O  0.34649297  0.87076822  0.58021379    -0.64540
Ni492      Ni  0.48038004  0.83680524  0.60854366     1.27450
Ni493      Ni  0.47136456  0.88621995  0.57492089     1.26060
H494        H  0.41132743  0.88568068  0.54462126     0.40620
O495        O  0.27366947  0.90973799  0.55884153    -0.79340
O496        O  0.09045591  0.88131357  0.54526878    -0.64020
O497        O  0.19875781  0.89092677  0.56888660    -1.10630
C498        C  0.21766579  0.83304060  0.49463956     1.07550
O499        O  0.09571778  0.84556083  0.55085038    -0.77230
O500        O  0.16396295  0.82537562  0.55951211    -0.64810
Ni501      Ni  0.21975567  0.91980555  0.56597333     1.34870
C502        C  0.18881974  0.83255980  0.58058536     0.86290
O503        O  0.12733620  0.90491799  0.59056287    -0.77770
O504        O  0.16888627  0.93077367  0.57663414    -0.88050
C505        C  0.07694915  0.86324407  0.55513654     0.85860
O506        O  0.20487110  0.92293280  0.52006470    -0.66250
O507        O  0.18016438  0.82987720  0.49433474    -0.85540
C508        C  0.16849743  0.92212777  0.50959314     0.86690
C509        C  0.14924381  0.92088492  0.59811766     1.08260
H510        H  0.16220845  0.87414047  0.50342807     0.40060
O511        O  0.16393256  0.86749748  0.52490276    -1.08200
O512        O  0.21066600  0.84913833  0.57610130    -0.64850
Ni513      Ni  0.21809711  0.86939079  0.54088605     1.26350
O514        O  0.14201916  0.91072428  0.52402269    -0.65080
O515        O  0.23635442  0.84683612  0.51265019    -0.77370
C516        C  0.28894037  0.89096669  0.56551778     0.86080
O517        O  0.27081607  0.87306215  0.55891229    -0.64540
Ni518      Ni  0.13899335  0.83910397  0.52233928     1.27450
Ni519      Ni  0.14414931  0.88694185  0.55635390     1.26060
H520        H  0.20245896  0.88631701  0.59139622     0.40620
O521        O  0.23360758  0.21453183  0.09612005    -0.79340
O522        O  0.18207708  0.24946482  0.23670063    -0.64020
O523        O  0.20425907  0.23908069  0.14740383    -1.10630
C524        C  0.31927091  0.28240369  0.16619438     1.07550
O525        O  0.20314632  0.28415653  0.23829247    -0.77230
O526        O  0.21361183  0.29665570  0.17403920    -0.64810
Ni527      Ni  0.19727982  0.20955709  0.13181772     1.34870
C528        C  0.21940514  0.29289686  0.14406409     0.86290
O529        O  0.14020724  0.23017639  0.18963358    -0.77770
O530        O  0.15822319  0.20012500  0.16395186    -0.88050
C531        C  0.18424697  0.26797926  0.25036674     0.85860
O532        O  0.23900265  0.20030598  0.16091878    -0.66250
O533        O  0.29500254  0.29325771  0.18337709    -0.85540
C534        C  0.23727893  0.20270933  0.19170461     0.86690
C535        C  0.13558274  0.20991278  0.18368056     1.08260
H536        H  0.26140951  0.24834644  0.21006165     0.40060
O537        O  0.24448275  0.25679761  0.19526099    -1.08200
O538        O  0.24031113  0.27728830  0.13376419    -0.64850
Ni539      Ni  0.25882882  0.25030551  0.15176638     1.26350
O540        O  0.21596337  0.21687366  0.20576020    -0.65080
O541        O  0.31176162  0.26285181  0.15691647    -0.77370
C542        C  0.26104262  0.22815100  0.08913211     0.86080
O543        O  0.27284052  0.24316844  0.10827622    -0.64540
Ni544      Ni  0.24792769  0.28676507  0.20897416     1.27450
Ni545      Ni  0.19213160  0.24393224  0.19209069     1.26060
H546        H  0.18787346  0.24866660  0.13377441     0.40620
O547        O  0.05849358  0.21184005  0.62309574    -0.79340
O548        O  0.48695678  0.25231066  0.75320876    -0.64020
O549        O  0.01624439  0.23837768  0.66654389    -1.10630
C550        C  0.12191361  0.28621278  0.67740594     1.07550
O551        O  0.52391701  0.28206906  0.76402954    -0.77230
O552        O  0.51748681  0.29487024  0.69872616    -0.64810
Ni553      Ni  0.01535573  0.20823884  0.65374644     1.34870
C554        C  0.51987226  0.29208819  0.66805772     0.86290
O555        O  0.44968349  0.23177356  0.70419106    -0.77770
O556        O  0.46958848  0.20105834  0.67997351    -0.88050
C557        C  0.49772160  0.26794069  0.77168275     0.85860
O558        O  0.05119992  0.19984122  0.68890690    -0.66250
O559        O  0.09833061  0.29630408  0.69595451    -0.85540
C560        C  0.04450455  0.20345484  0.71887459     0.86690
C561        C  0.44391919  0.21196896  0.69556454     1.08260
H562        H  0.07203855  0.24800801  0.72840947     0.40060
O563        O  0.05518620  0.25703405  0.71432677    -1.08200
O564        O  0.04292592  0.27840241  0.65496311    -0.64850
Ni565      Ni  0.06767563  0.25185463  0.66989775     1.26350
O566        O  0.02146448  0.21835279  0.72858743    -0.65080
O567        O  0.11881632  0.26578617  0.67293216    -0.77370
C568        C  0.07450291  0.22880140  0.61059911     0.86080
O569        O  0.07771903  0.24675714  0.62547109    -0.64540
Ni570      Ni  0.05985287  0.28701582  0.72834010     1.27450
Ni571      Ni  0.00155408  0.24498741  0.70985924     1.26060
H572        H  0.49894792  0.24636168  0.65143283     0.40620
O573        O  0.13254720  0.21862987  0.50420716    -0.79340
O574        O  0.14873935  0.25225665  0.35716041    -0.64020
O575        O  0.15049003  0.24412400  0.44931363    -1.10630
C576        C  0.03045016  0.28579691  0.45076492     1.07550
O577        O  0.11405261  0.28345479  0.35253490    -0.77230
O578        O  0.12503270  0.30040650  0.41420482    -0.64810
Ni579      Ni  0.16456781  0.21539588  0.46608983     1.34870
C580        C  0.13092098  0.29854980  0.44483662     0.86290
O581        O  0.20405788  0.23622905  0.39761406    -0.77770
O582        O  0.20074731  0.20766415  0.43136605    -0.88050
C583        C  0.13649753  0.26872395  0.34090025     0.85860
O584        O  0.12138673  0.20212790  0.44293187    -0.66250
O585        O  0.04569395  0.29511660  0.42602062    -0.85540
C586        C  0.11565736  0.20419959  0.41235832     0.86690
C587        C  0.21647146  0.21739902  0.40730374     1.08260
H588        H  0.07700701  0.24818649  0.39913002     0.40060
O589        O  0.09586647  0.25850104  0.40852702    -1.08200
O590        O  0.11795475  0.28304879  0.46245581    -0.64850
Ni591      Ni  0.09620210  0.25480714  0.45491057     1.26350
O592        O  0.12888593  0.21976727  0.39510999    -0.65080
O593        O  0.04273005  0.26695780  0.46068238    -0.77370
C594        C  0.11072790  0.23323969  0.51660393     0.86080
O595        O  0.09821859  0.25007762  0.50109403    -0.64540
Ni596      Ni  0.08184664  0.28706835  0.39107540     1.27450
Ni597      Ni  0.15031620  0.24795258  0.40311421     1.26060
H598        H  0.16943482  0.25433747  0.45881819     0.40620
O599        O  0.34213759  0.21211114  0.99457659    -0.79340
O600        O  0.43900913  0.25059994  0.87384750    -0.64020
O601        O  0.39484409  0.23750141  0.95674141    -1.10630
C602        C  0.30039473  0.29132576  0.93274970     1.07550
O603        O  0.41974326  0.28535327  0.86707005    -0.77230
O604        O  0.41007631  0.29563833  0.93270539    -0.64810
Ni605      Ni  0.38818824  0.20699317  0.96766314     1.34870
C606        C  0.40002876  0.29208207  0.96205346     0.86290
O607        O  0.46446868  0.22724602  0.92464337    -0.77770
O608        O  0.43505935  0.19745980  0.94461669    -0.88050
C609        C  0.43924772  0.26859769  0.85832050     0.85860
O610        O  0.35521180  0.20178770  0.92970611    -0.66250
O611        O  0.33005457  0.30071029  0.91988107    -0.85540
C612        C  0.36595529  0.20556966  0.90063423     0.86690
C613        C  0.46453390  0.20698606  0.93158052     1.08260
H614        H  0.35285388  0.25347516  0.88999637     0.40060
O615        O  0.36916052  0.26031826  0.90683877    -1.08200
O616        O  0.37262303  0.27873107  0.96989561    -0.64850
Ni617      Ni  0.34704940  0.25417169  0.94848000     1.26350
O618        O  0.39287631  0.21930465  0.89340585    -0.65080
O619        O  0.30004521  0.27103383  0.93941009    -0.77370
C620        C  0.32334606  0.22892605  0.00417508     0.86080
O621        O  0.32557295  0.24742903  0.99011564    -0.64540
Ni622      Ni  0.37548854  0.29079593  0.89557057     1.27450
Ni623      Ni  0.41730200  0.24387951  0.91531866     1.26060
H624        H  0.41115845  0.24416605  0.97374050     0.40620
O625        O  0.24453187  0.02966009  0.01052054    -0.79340
O626        O  0.23431119  0.99976862  0.86334442    -0.64020
O627        O  0.22699181  0.00537381  0.95452146    -1.10630
C628        C  0.34707445  0.96245364  0.95868039     1.07550
O629        O  0.25137727  0.96469187  0.86417496    -0.77230
O630        O  0.25370441  0.94672341  0.92405375    -0.64810
Ni631      Ni  0.21216022  0.03352026  0.97180556     1.34870
C632        C  0.24601594  0.94965166  0.95375214     0.86290
O633        O  0.17716014  0.01529801  0.89906776    -0.77770
O634        O  0.17591377  0.04165700  0.93621062    -0.88050
C635        C  0.23374219  0.98105538  0.85088797     0.85860
O636        O  0.25404097  0.04857733  0.95117364    -0.66250
O637        O  0.33349522  0.95469275  0.93166308    -0.85540
C638        C  0.26235338  0.04684855  0.92131042     0.86690
C639        C  0.16302884  0.03312706  0.90981515     1.08260
H640        H  0.30172408  0.00018981  0.90896300     0.40060
O641        O  0.28153588  0.99039517  0.91706833    -1.08200
O642        O  0.25661303  0.96605000  0.97045008    -0.64850
Ni643      Ni  0.28037709  0.99352104  0.96316079     1.26350
O644        O  0.25273793  0.03084273  0.90322735    -0.65080
O645        O  0.33256152  0.97981101  0.97138643    -0.77370
C646        C  0.26499933  0.01442822  0.02374816     0.86080
O647        O  0.27754327  0.99776593  0.00887628    -0.64540
Ni648      Ni  0.29181900  0.96179772  0.89899204     1.27450
Ni649      Ni  0.22940444  0.00279745  0.90848490     1.26060
H650        H  0.20723821  0.99506648  0.96190049     0.40620
O651        O  0.31789244  0.03460743  0.12910913    -0.79340
O652        O  0.40278185  0.99547276  0.25743078    -0.64020
O653        O  0.36436512  0.00869319  0.17198485    -1.10630
C654        C  0.26331807  0.95862842  0.18638312     1.07550
O655        O  0.37385576  0.96311775  0.26716404    -0.77230
O656        O  0.37014438  0.95153086  0.20252542    -0.64810
Ni657      Ni  0.36289717  0.03887932  0.15863446     1.34870
C658        C  0.36369949  0.95470912  0.17216256     0.86290
O659        O  0.43363583  0.01678296  0.20826648    -0.77770
O660        O  0.40963160  0.04711877  0.18434004    -0.88050
C661        C  0.39861276  0.97827440  0.27429395     0.85860
O662        O  0.32924437  0.04663093  0.19345201    -0.66250
O663        O  0.28935416  0.94888510  0.20437978    -0.85540
C664        C  0.33843806  0.04337255  0.22337552     0.86690
C665        C  0.43703717  0.03677322  0.19991795     1.08260
H666        H  0.31591011  0.99696021  0.23555916     0.40060
O667        O  0.33204201  0.98865562  0.22077600    -1.08200
O668        O  0.33854658  0.96831975  0.16036205    -0.64850
Ni669      Ni  0.31421145  0.99415834  0.17698206     1.26350
O670        O  0.36250501  0.02861511  0.23352946    -0.65080
O671        O  0.26455795  0.97912953  0.18164687    -0.77370
C672        C  0.30069914  0.01758910  0.11796213     0.86080
O673        O  0.29868622  0.99970508  0.13333524    -0.64540
Ni674      Ni  0.33207021  0.95832872  0.23441927     1.27450
Ni675      Ni  0.38351511  0.00242578  0.21488759     1.26060
H676        H  0.38067446  0.00096988  0.15673721     0.40620
O677        O  0.14850684  0.02899386  0.60885155    -0.79340
O678        O  0.16212772  0.00246327  0.75874144    -0.64020
O679        O  0.16550094  0.00589332  0.66662743    -1.10630
C680        C  0.04031685  0.96671970  0.66820026     1.07550
O681        O  0.13799709  0.96857033  0.76102494    -0.77230
O682        O  0.13282219  0.94924260  0.70344684    -0.64810
Ni683      Ni  0.18309763  0.03281401  0.64638766     1.34870
C684        C  0.14078280  0.95106818  0.67360560     0.86290
O685        O  0.21863363  0.01628682  0.72039804    -0.77770
O686        O  0.22108845  0.04128794  0.68083046    -0.88050
C687        C  0.15967544  0.98395502  0.77236552     0.85860
O688        O  0.14322262  0.04942598  0.66606595    -0.66250
O689        O  0.05373397  0.95939766  0.69566459    -0.85540
C690        C  0.13505704  0.04887352  0.69600946     0.86690
C691        C  0.23373667  0.03357600  0.70809778     1.08260
H692        H  0.09233888  0.00447818  0.71423989     0.40060
O693        O  0.11096144  0.99370400  0.70658176    -1.08200
O694        O  0.13135690  0.96713311  0.65526289    -0.64850
Ni695      Ni  0.11042799  0.99553242  0.66024979     1.26350
O696        O  0.14416358  0.03351018  0.71592292    -0.65080
O697        O  0.05643488  0.98324762  0.65404295    -0.77370
C698        C  0.12349827  0.01510508  0.59793568     0.86080
O699        O  0.11108775  0.99878820  0.61408630    -0.64540
Ni700      Ni  0.09679787  0.96623946  0.72718750     1.27450
Ni701      Ni  0.16492239  0.00467590  0.71300219     1.26060
H702        H  0.18372094  0.99470234  0.65965698     0.40620
O703        O  0.05294771  0.03753934  0.49725086    -0.79340
O704        O  0.46894793  0.99750098  0.36925516    -0.64020
O705        O  0.00584137  0.01152720  0.45476385    -1.10630
C706        C  0.10787431  0.96081990  0.44343753     1.07550
O707        O  0.49745673  0.96475638  0.36206883    -0.77230
O708        O  0.50136563  0.95329850  0.42657213    -0.64810
Ni709      Ni  0.00744561  0.04177287  0.46747237     1.34870
C710        C  0.50715947  0.95686511  0.45679627     0.86290
O711        O  0.43713668  0.02002772  0.41670122    -0.77770
O712        O  0.46026942  0.05004596  0.44158488    -0.88050
C713        C  0.47284654  0.97979749  0.35381049     0.85860
O714        O  0.04094675  0.04969976  0.43231451    -0.66250
O715        O  0.08229713  0.95106889  0.42517028    -0.85540
C716        C  0.03280149  0.04594561  0.40236769     0.86690
C717        C  0.43324672  0.03994187  0.42522862     1.08260
H718        H  0.05545863  0.99893456  0.39265719     0.40060
O719        O  0.03888071  0.99080221  0.40741260    -1.08200
O720        O  0.03120321  0.97102235  0.46835380    -0.64850
Ni721      Ni  0.05599663  0.99660387  0.45114135     1.26350
O722        O  0.00939249  0.03088623  0.39244333    -0.65080
O723        O  0.10587262  0.98129252  0.44815319    -0.77370
C724        C  0.07071629  0.02060921  0.50873385     0.86080
O725        O  0.07087926  0.00241666  0.49456901    -0.64540
Ni726      Ni  0.03940960  0.96035430  0.39478812     1.27450
Ni727      Ni  0.48736181  0.00503154  0.41178722     1.26060
H728        H  0.48907360  0.00392270  0.46999163     0.40620
O729        O  0.14813050  0.09427421  0.29260522    -0.79340
O730        O  0.47219755  0.12052370  0.29849618    -0.64020
O731        O  0.07720783  0.11479512  0.26484327    -1.10630
C732        C  0.09387294  0.17115344  0.33630157     1.07550
O733        O  0.46908340  0.15673776  0.29122413    -0.77230
O734        O  0.03755453  0.17172297  0.25621942    -0.64810
Ni735      Ni  0.10258761  0.08635389  0.26443880     1.34870
C736        C  0.07396542  0.17075413  0.24742284     0.86290
O737        O  0.50397521  0.09230807  0.25499417    -0.77770
O738        O  0.05903403  0.07506606  0.23767652    -0.88050
C739        C  0.45487570  0.13886894  0.30269522     0.85860
O740        O  0.08052925  0.07387817  0.30252332    -0.66250
O741        O  0.07154092  0.18051642  0.31506462    -0.85540
C742        C  0.05637590  0.08133395  0.32280667     0.86690
C743        C  0.02120755  0.07738226  0.23881864     1.08260
H744        H  0.04111083  0.13580868  0.32918720     0.40060
O745        O  0.04381442  0.13956928  0.30637561    -1.08200
O746        O  0.09972793  0.15873396  0.26262981    -0.64850
Ni747      Ni  0.09766127  0.13548527  0.29573617     1.26350
O748        O  0.03416947  0.09778891  0.31743307    -0.65080
O749        O  0.11410622  0.15440806  0.32969420    -0.77370
C750        C  0.16608677  0.11235952  0.29736704     0.86080
O751        O  0.15138713  0.13006676  0.28667095    -0.64540
Ni752      Ni  0.02181669  0.16812362  0.30135026     1.27450
Ni753      Ni  0.02366435  0.11654856  0.28050797     1.26060
H754        H  0.07768790  0.12093756  0.24304937     0.40620
O755        O  0.23587497  0.15614016  0.79227843    -0.79340
O756        O  0.41579526  0.13223343  0.79340831    -0.64020
O757        O  0.30602819  0.13563781  0.76678366    -1.10630
C758        C  0.30033043  0.08309496  0.85118652     1.07550
O759        O  0.41467233  0.09643090  0.78728622    -0.77230
O760        O  0.34291368  0.07324057  0.77206767    -0.64810
Ni761      Ni  0.28024453  0.16418314  0.76465141     1.34870
C762        C  0.30620184  0.07538939  0.76322130     0.86290
O763        O  0.37775013  0.15692324  0.74849388    -0.77770
O764        O  0.32200171  0.17639863  0.73781016    -0.88050
C765        C  0.43189700  0.11367741  0.79813477     0.85860
O766        O  0.30373159  0.17655154  0.80291923    -0.66250
O767        O  0.32999582  0.07404678  0.83800623    -0.85540
C768        C  0.33396535  0.17131089  0.82024243     0.86690
C769        C  0.35934533  0.17290514  0.73496409     1.08260
H770        H  0.35148481  0.11931112  0.83162458     0.40060
O771        O  0.34617854  0.11360705  0.80998012    -1.08200
O772        O  0.28483286  0.09107412  0.77340700    -0.64850
Ni773      Ni  0.29139336  0.11633988  0.80187300     1.26350
O774        O  0.35813140  0.15625212  0.81299818    -0.65080
O775        O  0.28062844  0.09912233  0.83919777    -0.77370
C776        C  0.22028654  0.13800738  0.80061786     0.86080
O777        O  0.23649054  0.12001254  0.79447294    -0.64540
Ni778      Ni  0.37027295  0.08534324  0.81058423     1.27450
Ni779      Ni  0.36190414  0.13489921  0.77892176     1.26060
H780        H  0.30204096  0.12839698  0.74603321     0.40620
O781        O  0.21985258  0.09570174  0.32772998    -0.79340
O782        O  0.39967816  0.12028599  0.32419649    -0.64020
O783        O  0.29146654  0.11734413  0.35142125    -1.10630
C784        C  0.28065882  0.16975245  0.26723490     1.07550
O785        O  0.40007476  0.15624836  0.32994279    -0.77230
O786        O  0.32727599  0.17815990  0.34789565    -0.64810
Ni787      Ni  0.26606288  0.08884568  0.35596098     1.34870
C788        C  0.29012353  0.17662182  0.35445670     0.86290
O789        O  0.36485703  0.09569140  0.36957932    -0.77770
O790        O  0.30968145  0.07743615  0.38353736    -0.88050
C791        C  0.41636387  0.13867823  0.31964929     0.85860
O792        O  0.28723004  0.07556196  0.31863957    -0.66250
O793        O  0.30935769  0.17919859  0.28242529    -0.85540
C794        C  0.31487043  0.08102363  0.29991576     0.86690
C795        C  0.34747129  0.08032664  0.38475800     1.08260
H796        H  0.33413147  0.13352553  0.28648615     0.40060
O797        O  0.32931233  0.13905547  0.30809750    -1.08200
O798        O  0.26818861  0.16145963  0.34245189    -0.64850
Ni799      Ni  0.27488828  0.13583857  0.31501665     1.26350
O800        O  0.33929435  0.09648577  0.30546874    -0.65080
O801        O  0.26291733  0.15265804  0.27709626    -0.77370
C802        C  0.20398613  0.11317226  0.31631647     0.86080
O803        O  0.21999739  0.13160951  0.32055867    -0.64540
Ni804      Ni  0.35250225  0.16747994  0.30841763     1.27450
Ni805      Ni  0.34673587  0.11783300  0.33920310     1.26060
H806        H  0.28888013  0.12521019  0.37164397     0.40620
O807        O  0.16762982  0.15485231  0.82906229    -0.79340
O808        O  0.48661829  0.13095060  0.82435016    -0.64020
O809        O  0.09671332  0.13286853  0.85179350    -1.10630
C810        C  0.10149486  0.08477252  0.76442459     1.07550
O811        O  0.48588354  0.09483835  0.82581042    -0.77230
O812        O  0.05723237  0.07371074  0.84482796    -0.64810
Ni813      Ni  0.12282720  0.16120815  0.85671672     1.34870
C814        C  0.09435416  0.07466973  0.85242291     0.86290
O815        O  0.02505330  0.15308339  0.87203031    -0.77770
O816        O  0.08104757  0.17187043  0.88427535    -0.88050
C817        C  0.46988370  0.11291782  0.81696158     0.85860
O818        O  0.10032261  0.17473862  0.81875800    -0.66250
O819        O  0.07577055  0.07400203  0.78017873    -0.85540
C820        C  0.07097785  0.16973794  0.80038248     0.86690
C821        C  0.04394406  0.16800860  0.88737239     1.08260
H822        H  0.04998821  0.11967538  0.78551229     0.40060
O823        O  0.05585397  0.11320138  0.80670674    -1.08200
O824        O  0.11725886  0.08920519  0.84056185    -0.64850
Ni825      Ni  0.11079516  0.11585930  0.81459504     1.26350
O826        O  0.04533976  0.15530786  0.80720163    -0.65080
O827        O  0.12058123  0.10108776  0.77552552    -0.77370
C828        C  0.18263800  0.13740722  0.81802256     0.86080
O829        O  0.16598426  0.11912578  0.82153172    -0.64540
Ni830      Ni  0.03258220  0.08478047  0.80476267     1.27450
Ni831      Ni  0.04058832  0.13272807  0.83956786     1.26060
H832        H  0.10080845  0.12445170  0.87167880     0.40620
C833        C  0.39826180  0.05243960  0.41423242    -0.11720
C834        C  0.37283528  0.06480022  0.40282977    -0.13280
C835        C  0.05361537  0.07031262  0.35340040    -0.11720
C836        C  0.04801484  0.05996678  0.37783110    -0.13280
C837        C  0.09140774  0.02147574  0.53950970    -0.11720
C838        C  0.10729558  0.01874908  0.56583066    -0.13280
C839        C  0.10972094  0.07765817  0.73297102    -0.11720
C840        C  0.11772574  0.06711157  0.70998015    -0.13280
C841        C  0.28630241  0.05892861  0.74197127    -0.11720
C842        C  0.26464279  0.04617493  0.72641033    -0.13280
C843        C  0.31865871  0.06888341  0.27074610    -0.11720
C844        C  0.32403513  0.05778796  0.24731388    -0.13280
C845        C  0.49607198  0.06174314  0.22188412    -0.11720
C846        C  0.47151619  0.04914876  0.21066475    -0.13280
C847        C  0.44715185  0.97660544  0.32575371    -0.11720
C848        C  0.42408607  0.97600656  0.30272999    -0.13280
C849        C  0.18508986  0.97974999  0.80014364    -0.11720
C850        C  0.20891362  0.97836547  0.82245914    -0.13280
C851        C  0.27473053  0.01656042  0.05748738    -0.11720
C852        C  0.28440021  0.01813864  0.08569090    -0.13280
C853        C  0.13311459  0.04540834  0.89052843    -0.11720
C854        C  0.11262145  0.05816530  0.87417017    -0.13280
C855        C  0.28022840  0.06433625  0.90499254    -0.11720
C856        C  0.28924596  0.07468972  0.88166831    -0.13280
C857        C  0.34117968  0.18304858  0.84986253    -0.11720
C858        C  0.34939005  0.19304856  0.87430449    -0.13280
C859        C  0.49744591  0.19374444  0.92127505    -0.11720
C860        C  0.02110801  0.18197651  0.90811103    -0.13280
C861        C  0.09378054  0.17845658  0.36877591    -0.11720
C862        C  0.09767749  0.18744468  0.39425787    -0.13280
C863        C  0.27018153  0.19308231  0.37495170    -0.11720
C864        C  0.24788342  0.20549586  0.38968071    -0.13280
C865        C  0.46194157  0.26986512  0.82877796    -0.11720
C866        C  0.47908519  0.26963571  0.80305283    -0.13280
C867        C  0.08905349  0.22812794  0.57789147    -0.11720
C868        C  0.09937891  0.23019800  0.54998587    -0.13280
C869        C  0.38325626  0.18843113  0.71700170    -0.11720
C870        C  0.40854372  0.20042222  0.70589081    -0.13280
C871        C  0.06097137  0.18980275  0.74397243    -0.11720
C872        C  0.06704041  0.18058083  0.76956853    -0.13280
C873        C  0.29889506  0.22701381  0.03279596    -0.11720
C874        C  0.28029554  0.22665783  0.05788670    -0.13280
C875        C  0.16454953  0.27060572  0.28105472    -0.11720
C876        C  0.14990376  0.27082814  0.30778942    -0.13280
C877        C  0.08857379  0.18498235  0.22112077    -0.11720
C878        C  0.10704750  0.19687226  0.20247825    -0.13280
C879        C  0.25760331  0.18819100  0.21284501    -0.11720
C880        C  0.26835121  0.17886504  0.23704443    -0.13280
C881        C  0.15705048  0.93338894  0.65731779    -0.11720
C882        C  0.15713513  0.92502570  0.63133926    -0.13280
C883        C  0.13670895  0.94766677  0.46252724    -0.11720
C884        C  0.15483701  0.93595026  0.48219083    -0.13280
C885        C  0.48842658  0.94362208  0.47987974    -0.11720
C886        C  0.47799332  0.93391355  0.50338186    -0.13280
C887        C  0.48256591  0.94201432  0.63794017    -0.11720
C888        C  0.00673929  0.95447035  0.65190730    -0.13280
C889        C  0.40901730  0.80681055  0.49997726    -0.11720
C890        C  0.41796140  0.81807264  0.52323916    -0.13280
C891        C  0.26164237  0.80701848  0.46052129    -0.11720
C892        C  0.24039830  0.81944582  0.47428611    -0.13280
C893        C  0.29356762  0.72869798  0.54944628    -0.11720
C894        C  0.27746801  0.72929818  0.57564899    -0.13280
C895        C  0.35342400  0.80022454  0.66671876    -0.11720
C896        C  0.37814064  0.81227328  0.65506614    -0.13280
C897        C  0.19939836  0.81170530  0.63650893    -0.11720
C898        C  0.19257171  0.82143344  0.61135153    -0.13280
C899        C  0.19277682  0.77380410  0.80728710    -0.11720
C900        C  0.18926606  0.77251680  0.83662571    -0.13280
C901        C  0.08363843  0.72498327  0.09336038    -0.11720
C902        C  0.10280299  0.72507577  0.06840483    -0.13280
C903        C  0.44133181  0.76827240  0.30542595    -0.11720
C904        C  0.43171058  0.76819252  0.33367489    -0.13280
C905        C  0.27693442  0.68447003  0.75866242    -0.11720
C906        C  0.26517220  0.69429509  0.73507781    -0.13280
C907        C  0.29018823  0.68629599  0.89978866    -0.11720
C908        C  0.27080857  0.69817794  0.91766065    -0.13280
C909        C  0.48600964  0.31529387  0.62254299    -0.11720
C910        C  0.49839174  0.30565253  0.64604580    -0.13280
C911        C  0.47814536  0.31032095  0.48495964    -0.11720
C912        C  0.99984236  0.29812996  0.46905989    -0.13280
C913        C  0.03798838  0.69139618  0.25491392    -0.11720
C914        C  0.04555156  0.68154674  0.27991454    -0.13280
C915        C  0.50364417  0.67999028  0.41760864    -0.11720
C916        C  0.48031023  0.69173795  0.43078772    -0.13280
C917        C  0.32125684  0.68131678  0.36221920    -0.11720
C918        C  0.32994558  0.69150295  0.38663700    -0.13280
C919        C  0.36237182  0.68239439  0.22471080    -0.11720
C920        C  0.38711317  0.69353622  0.21128553    -0.13280
C921        C  0.42739671  0.31440765  0.01227742    -0.11720
C922        C  0.41803991  0.30448372  0.98797864    -0.13280
C923        C  0.35524307  0.29370876  0.15513855    -0.11720
C924        C  0.38141077  0.30542235  0.14402245    -0.13280
C925        C  0.19952421  0.31671462  0.09427464    -0.11720
C926        C  0.20440196  0.30722301  0.11961259    -0.13280
C927        C  0.26787716  0.30477750  0.94313442    -0.11720
C928        C  0.24471467  0.31686002  0.95621082    -0.13280
C929        C  0.11857409  0.68914233  0.91332012    -0.11720
C930        C  0.10868470  0.67988190  0.88904369    -0.13280
C931        C  0.09601825  0.69013017  0.74476168    -0.11720
C932        C  0.11359330  0.70229697  0.72634067    -0.13280
C933        C  0.14952349  0.31536551  0.46249590    -0.11720
C934        C  0.15566668  0.32430547  0.48778799    -0.13280
C935        C  0.16516891  0.31032092  0.63727145    -0.11720
C936        C  0.14881138  0.29889611  0.65739874    -0.13280
C937        C  0.19978307  0.43938960  0.50334875    -0.11720
C938        C  0.19496432  0.42937839  0.52805980    -0.13280
C939        C  0.37697550  0.44153758  0.47893683    -0.11720
C940        C  0.35061419  0.45370564  0.46866554    -0.13280
C941        C  0.26489382  0.56817775  0.39035733    -0.11720
C942        C  0.25237880  0.55794501  0.41260532    -0.13280
C943        C  0.08640007  0.55973749  0.39312654    -0.11720
C944        C  0.10310831  0.54792209  0.41329306    -0.13280
C945        C  0.27234357  0.43854408  0.67771717    -0.11720
C946        C  0.24963656  0.42592248  0.66453019    -0.13280
C947        C  0.29184311  0.52019891  0.59097102    -0.11720
C948        C  0.27297240  0.52012735  0.56555050    -0.13280
C949        C  0.34201594  0.55598304  0.75008307    -0.11720
C950        C  0.33300726  0.56674631  0.77337493    -0.13280
C951        C  0.48917080  0.55872003  0.70437737    -0.11720
C952        C  0.51284097  0.57084714  0.71758566    -0.13280
C953        C  0.41709400  0.44202695  0.63170715    -0.11720
C954        C  0.42569048  0.43130595  0.60827797    -0.13280
C955        C  0.46604622  0.47783411  0.79220295    -0.11720
C956        C  0.48352860  0.47776096  0.81818448    -0.13280
C957        C  0.38123133  0.55788055  0.90312619    -0.11720
C958        C  0.40730222  0.54576024  0.91363764    -0.13280
C959        C  0.05996032  0.55818678  0.87917721    -0.11720
C960        C  0.06586687  0.56840202  0.85467441    -0.13280
C961        C  0.14884835  0.44922887  0.97211103    -0.11720
C962        C  0.16460582  0.43726552  0.99234943    -0.13280
C963        C  0.48725245  0.42926155  0.99484675    -0.11720
C964        C  0.50034328  0.44023605  0.97345370    -0.13280
C965        C  0.10421870  0.51872343  0.07263261    -0.11720
C966        C  0.09216005  0.52114690  0.04502382    -0.13280
C967        C  0.15801754  0.47545493  0.34053903    -0.11720
C968        C  0.14362813  0.47608797  0.31339735    -0.13280
C969        C  0.15912366  0.41943629  0.13777449    -0.11720
C970        C  0.14928220  0.42955037  0.16088499    -0.13280
C971        C  0.00128568  0.44979993  0.14435816    -0.11720
C972        C  0.47964129  0.43710318  0.12871797    -0.13280
C973        C  0.26915868  0.55494303  0.25532600    -0.11720
C974        C  0.24853693  0.54167056  0.23990220    -0.13280
C975        C  0.09557533  0.57333254  0.24665921    -0.11720
C976        C  0.10444524  0.56353175  0.22305663    -0.13280
C977        C  0.17958994  0.80731219  0.00613622    -0.11720
C978        C  0.18610219  0.81703494  0.03095918    -0.13280
C979        C  0.13893270  0.81625010  0.16636240    -0.11720
C980        C  0.11668779  0.80355856  0.17904914    -0.13280
C981        C  0.22202713  0.92433763  0.99709724    -0.11720
C982        C  0.22770763  0.93314685  0.97173076    -0.13280
C983        C  0.21893552  0.93395352  0.14668840    -0.11720
C984        C  0.23566307  0.94549266  0.16690966    -0.13280
C985        C  0.46493557  0.80418201  0.13938314    -0.11720
C986        C  0.45514121  0.81482210  0.11556559    -0.13280
C987        C  0.99908748  0.80599011  0.98526070    -0.11720
C988        C  0.02481722  0.79414753  0.97457467    -0.13280
C989        C  0.39523492  0.93171156  0.12677630    -0.11720
C990        C  0.38322026  0.94168897  0.14935398    -0.13280
C991        C  0.40072532  0.93703424  0.99207678    -0.11720
C992        C  0.37866829  0.94974257  0.97644526    -0.13280
O993        O  0.52849814  0.90024983  0.04348495    -0.79340
O994        O  0.84992686  0.87783588  0.05004306    -0.64020
O995        O  0.95879991  0.88541780  0.06801849    -1.10630
C996        C  0.97450692  0.82195156  0.00160855     1.07550
O997        O  0.85145169  0.84179688  0.05536160    -0.77230
O998        O  0.91889423  0.82031467  0.06725719    -0.64810
Ni999      Ni  0.98364208  0.91328845  0.06415095     1.34870
C1000       C  0.94732517  0.82672310  0.08569882     0.86290
O1001       O  0.89147650  0.90287148  0.09113039    -0.77770
O1002       O  0.94286722  0.92678302  0.08870517    -0.88050
C1003       C  0.83488695  0.86025009  0.06003839     0.85860
O1004       O  0.95719644  0.92347822  0.02368108    -0.66250
O1005       O  0.93665700  0.81928913  0.00225871    -0.85540
C1006       C  0.92065728  0.92097497  0.01444556     0.86690
C1007       C  0.91035327  0.91989958  0.10043439     1.08260
H1008       H  0.91846784  0.86657451  0.00573719     0.40060
O1009       O  0.92088164  0.86066203  0.02765286    -1.08200
O1010       O  0.96979364  0.84275922  0.07890563    -0.64850
Ni1011     Ni  0.97573759  0.86183577  0.04163872     1.26350
O1012       O  0.89922038  0.90550315  0.02553976    -0.65080
O1013       O  0.99271699  0.83772353  0.01564071    -0.77370
C1014       C  0.54574920  0.88369439  0.05707324     0.86080
O1015       O  0.52881988  0.86518684  0.05709189    -0.64540
Ni1016     Ni  0.89507842  0.83228195  0.02830647     1.27450
Ni1017     Ni  0.90439601  0.88241094  0.05841165     1.26060
H1018       H  0.96281319  0.88126977  0.09069012     0.40620
O1019       O  0.59983900  0.90403811  0.07999717    -0.79340
O1020       O  0.78325719  0.87997997  0.08411353    -0.64020
O1021       O  0.67327437  0.88659868  0.06597383    -1.10630
C1022       C  0.66111748  0.83072341  0.14627413     1.07550
O1023       O  0.78157456  0.84393860  0.08766590    -0.77230
O1024       O  0.71462976  0.82267749  0.08204302    -0.64810
Ni1025     Ni  0.65042999  0.91501417  0.06626889     1.34870
C1026       C  0.68884065  0.82867383  0.06079375     0.86290
O1027       O  0.73989890  0.90038263  0.03824640    -0.77770
O1028       O  0.69799653  0.92726437  0.04919100    -0.88050
C1029       C  0.79813144  0.86146875  0.07837932     0.85860
O1030       O  0.66886939  0.92072268  0.11031754    -0.66250
O1031       O  0.69890509  0.82877224  0.14686196    -0.85540
C1032       C  0.70548725  0.92037959  0.11954593     0.86690
C1033       C  0.71999842  0.91708036  0.02964406     1.08260
H1034       H  0.71466885  0.87380449  0.13164369     0.40060
O1035       O  0.71229843  0.86588986  0.11133337    -1.08200
O1036       O  0.66535759  0.84462016  0.06413027    -0.64850
Ni1037     Ni  0.65720504  0.86587356  0.09711373     1.26350
O1038       O  0.73170677  0.90927488  0.10468106    -0.65080
O1039       O  0.64147140  0.84392576  0.12777829    -0.77370
C1040       C  0.58545029  0.88531364  0.07276752     0.86080
O1041       O  0.60388986  0.86762497  0.08009358    -0.64540
Ni1042     Ni  0.73905353  0.83808219  0.11739947     1.27450
Ni1043     Ni  0.72821784  0.88396913  0.07582114     1.26060
H1044       H  0.66834208  0.88105128  0.04417831     0.40620
O1045       O  0.63492142  0.52959599  0.12079946    -0.79340
O1046       O  0.63819331  0.49713081  0.26660273    -0.64020
O1047       O  0.65356033  0.50288235  0.17554028    -1.10630
C1048       C  0.53200022  0.46188464  0.16358010     1.07550
O1049       O  0.61386255  0.46309641  0.26551865    -0.77230
O1050       O  0.62060820  0.44481331  0.20599443    -0.64810
Ni1051     Ni  0.67204185  0.53026130  0.15728122     1.34870
C1052       C  0.63090977  0.44699076  0.17663043     0.86290
O1053       O  0.69821762  0.51394720  0.23400748    -0.77770
O1054       O  0.71212459  0.53533237  0.19121276    -0.88050
C1055       C  0.63062453  0.47902409  0.28023027     0.85860
O1056       O  0.63633889  0.54840873  0.17966282    -0.66250
O1057       O  0.54272212  0.45367492  0.19112220    -0.85540
C1058       C  0.62131145  0.54571141  0.20740410     0.86690
C1059       C  0.71858222  0.52916399  0.22059697     1.08260
H1060       H  0.57455510  0.49871107  0.21576523     0.40060
O1061       O  0.59502754  0.48856119  0.20944564    -1.08200
O1062       O  0.62330775  0.46346183  0.15855399    -0.64850
Ni1063     Ni  0.60077728  0.49165146  0.16356512     1.26350
O1064       O  0.62322045  0.52839174  0.22448055    -0.65080
O1065       O  0.54854072  0.47910803  0.15193840    -0.77370
C1066       C  0.61683037  0.51443599  0.10551737     0.86080
O1067       O  0.60836291  0.49610766  0.11822488    -0.64540
Ni1068     Ni  0.57983648  0.46043605  0.22692488     1.27450
Ni1069     Ni  0.64700334  0.50054741  0.22145218     1.26060
H1070       H  0.67327821  0.49211347  0.16987086     0.40620
O1071       O  0.56080264  0.53650858  0.99861776    -0.79340
O1072       O  0.98867496  0.49451238  0.86830060    -0.64020
O1073       O  0.51674465  0.50931847  0.95557664    -1.10630
C1074       C  0.62278516  0.46187244  0.95062136     1.07550
O1075       O  0.52853725  0.46596346  0.85846184    -0.77230
O1076       O  0.52004568  0.45241172  0.92256099    -0.64810
Ni1077     Ni  0.51591223  0.53949588  0.96793898     1.34870
C1078       C  0.02126596  0.45488530  0.95340491     0.86290
O1079       O  0.95041776  0.51517747  0.91499679    -0.77770
O1080       O  0.96887431  0.54589901  0.94098396    -0.88050
C1081       C  0.00130529  0.47948256  0.85011132     0.85860
O1082       O  0.55032478  0.54832463  0.93367991    -0.66250
O1083       O  0.60019628  0.45171298  0.93054364    -0.85540
C1084       C  0.54395623  0.54434220  0.90357355     0.86690
C1085       C  0.94366377  0.53472695  0.92421819     1.08260
H1086       H  0.57354623  0.50010081  0.89708369     0.40060
O1087       O  0.55669218  0.49078109  0.91005419    -1.08200
O1088       O  0.54279254  0.46903480  0.96824741    -0.64850
Ni1089     Ni  0.56792148  0.49584692  0.95503118     1.26350
O1090       O  0.52171370  0.52900094  0.89320222    -0.65080
O1091       O  0.61924601  0.48223122  0.95502097    -0.77370
C1092       C  0.57575420  0.51964914  0.01274549     0.86080
O1093       O  0.57669724  0.50108382  0.99964299    -0.64540
Ni1094     Ni  0.56304122  0.46098086  0.89599617     1.27450
Ni1095     Ni  0.50267097  0.50235827  0.91184071     1.26060
H1096       H  0.99930832  0.50142223  0.96994110     0.40620
O1097       O  0.83035252  0.53558700  0.63311635    -0.79340
O1098       O  0.93281211  0.49877786  0.75312391    -0.64020
O1099       O  0.89113784  0.51189651  0.66811739    -1.10630
C1100       C  0.80391816  0.45305896  0.68746090     1.07550
O1101       O  0.93019842  0.46253828  0.74868712    -0.77230
O1102       O  0.90979222  0.44950931  0.68695451    -0.64810
Ni1103     Ni  0.87974381  0.54203212  0.65667531     1.34870
C1104       C  0.90089287  0.45469259  0.65760311     0.86290
O1105       O  0.95654449  0.52532632  0.70656805    -0.77770
O1106       O  0.92854500  0.55259944  0.67716620    -0.88050
C1107       C  0.94185882  0.47979766  0.76314005     0.85860
O1108       O  0.85075531  0.54876691  0.69490102    -0.66250
O1109       O  0.83243991  0.44517377  0.70488037    -0.85540
C1110       C  0.85883144  0.54340082  0.72433123     0.86690
C1111       C  0.95676475  0.54460234  0.69486597     1.08260
H1112       H  0.85040639  0.49132934  0.73011817     0.40060
O1113       O  0.86879257  0.48598972  0.71422343    -1.08200
O1114       O  0.87648277  0.46983919  0.64961183    -0.64850
Ni1115     Ni  0.84701951  0.49217408  0.67170095     1.26350
O1116       O  0.88286175  0.52812144  0.73256489    -0.65080
O1117       O  0.80334952  0.47247245  0.67617305    -0.77370
C1118       C  0.81741671  0.51829040  0.61939403     0.86080
O1119       O  0.82626761  0.49929573  0.62953667    -0.64540
Ni1120     Ni  0.88091597  0.45590000  0.72533938     1.27450
Ni1121     Ni  0.91268252  0.50577657  0.71078398     1.26060
H1122       H  0.90954199  0.50640694  0.65235037     0.40620
O1123       O  0.72509334  0.53097098  0.52661388    -0.78060
O1124       O  0.67693925  0.49671001  0.38430972    -0.64020
O1125       O  0.69828445  0.50663614  0.47406039    -1.10630
C1126       C  0.81387197  0.46464229  0.45799129     1.07550
O1127       O  0.69498779  0.46156663  0.38507482    -0.77230
O1128       O  0.70822895  0.44951605  0.44909232    -0.64810
Ni1129     Ni  0.68998805  0.53600673  0.48929319     1.34870
C1130       C  0.71471552  0.45349244  0.47913816     0.86290
O1131       O  0.63443326  0.51495915  0.42965435    -0.77770
O1132       O  0.65220704  0.54536705  0.45498956    -0.88050
C1133       C  0.67765212  0.47797051  0.37158289     0.85860
O1134       O  0.73238558  0.54547088  0.46299012    -0.66250
O1135       O  0.78921500  0.45344878  0.44069076    -0.85540
C1136       C  0.73137655  0.54324087  0.43212090     0.86690
C1137       C  0.63000287  0.53525273  0.43451495     1.08260
H1138       H  0.75516018  0.49759874  0.41325127     0.40060
O1139       O  0.73848861  0.48926196  0.42768828    -1.08200
O1140       O  0.73611763  0.46910968  0.48964639    -0.64850
Ni1141     Ni  0.75317426  0.49613324  0.47138353     1.26350
O1142       O  0.71020127  0.52918710  0.41670620    -0.65080
O1143       O  0.80621467  0.48404569  0.46759657    -0.77370
C1144       C  0.75405508  0.51826675  0.53393731     0.86080
O1145       O  0.76767720  0.50398651  0.51490188    -0.64540
Ni1146     Ni  0.74111426  0.45927907  0.41458647     1.27450
Ni1147     Ni  0.68646223  0.50189438  0.42904825     1.26060
H1148       H  0.68230388  0.49678938  0.48693590     0.40620
O1149       O  0.78208424  0.34097474  0.57226882    -0.79340
O1150       O  0.59920786  0.36594623  0.57668653    -0.64020
O1151       O  0.70831418  0.35966447  0.55934434    -1.10630
C1152       C  0.72605149  0.41228759  0.64328567     1.07550
O1153       O  0.60042015  0.40170784  0.58378290    -0.77230
O1154       O  0.66754814  0.42232563  0.57787790    -0.64810
Ni1155     Ni  0.73021118  0.33098748  0.55802098     1.34870
C1156       C  0.69350265  0.41720761  0.55750134     0.86290
O1157       O  0.64017893  0.34746025  0.52968338    -0.77770
O1158       O  0.68125800  0.31979885  0.54022641    -0.88050
C1159       C  0.58356604  0.38459009  0.57282440     0.85860
O1160       O  0.71399563  0.32402286  0.60173090    -0.66250
O1161       O  0.68842291  0.41514605  0.64254830    -0.85540
C1162       C  0.67777471  0.32431489  0.61057451     0.86690
C1163       C  0.65906938  0.33077949  0.52065567     1.08260
H1164       H  0.66981904  0.37006527  0.62546090     0.40060
O1165       O  0.67168944  0.37873679  0.60574074    -1.08200
O1166       O  0.71791376  0.40158795  0.56115000    -0.64850
Ni1167     Ni  0.72644506  0.37875748  0.59237258     1.26350
O1168       O  0.65108720  0.33589002  0.59574448    -0.65080
O1169       O  0.74439365  0.39900250  0.62510041    -0.77370
C1170       C  0.79629911  0.35989947  0.56629148     0.86080
O1171       O  0.77902178  0.37728733  0.57567550    -0.64540
Ni1172     Ni  0.64575526  0.40653279  0.61316900     1.27450
Ni1173     Ni  0.65382363  0.36225106  0.56866349     1.26060
H1174       H  0.71250574  0.36610880  0.53807169     0.40620
O1175       O  0.65977865  0.59765953  0.79943675    -0.79340
O1176       O  0.98184414  0.61938857  0.80515567    -0.64020
O1177       O  0.58883267  0.61940981  0.77593791    -1.10630
C1178       C  0.59913697  0.67076239  0.85844914     1.07550
O1179       O  0.97754463  0.65553796  0.80301802    -0.77230
O1180       O  0.54552944  0.67516587  0.77755692    -0.64810
Ni1181     Ni  0.61562920  0.59179367  0.76949987     1.34870
C1182       C  0.58210745  0.67511099  0.76974489     0.86290
O1183       O  0.51752254  0.59731922  0.75754384    -0.77770
O1184       O  0.57410612  0.58248368  0.73932844    -0.88050
C1185       C  0.96400210  0.63702663  0.81206077     0.85860
O1186       O  0.59348177  0.57563997  0.80458168    -0.66250
O1187       O  0.57265704  0.68028735  0.84072407    -0.85540
C1188       C  0.56795229  0.58089681  0.82530360     0.86690
C1189       C  0.53629516  0.58454103  0.73896172     1.08260
H1190       H  0.54684261  0.63326978  0.84237596     0.40060
O1191       O  0.55090852  0.63918319  0.82075253    -1.08200
O1192       O  0.60808988  0.66293251  0.78420187    -0.64850
Ni1193     Ni  0.60536500  0.63714261  0.81229565     1.26350
O1194       O  0.54410132  0.59680543  0.82179954    -0.65080
O1195       O  0.61739609  0.65360288  0.85008209    -0.77370
C1196       C  0.67640332  0.61509445  0.80952854     0.86080
O1197       O  0.66038242  0.63364873  0.80535116    -0.64540
Ni1198     Ni  0.52668482  0.66729311  0.82017190     1.27450
Ni1199     Ni  0.53427877  0.61863894  0.78902953     1.26060
H1200       H  0.59025237  0.62776227  0.75587215     0.40620
O1201       O  0.78335606  0.40165108  0.04170179    -0.79340
O1202       O  0.60318577  0.37916449  0.04874340    -0.64020
O1203       O  0.71422641  0.38324325  0.06171413    -1.10630
C1204       C  0.72253015  0.33095636  0.97715534     1.07550
O1205       O  0.59920980  0.34408245  0.03597421    -0.77230
O1206       O  0.66552324  0.32389727  0.04634848    -0.64810
Ni1207     Ni  0.73935294  0.41117174  0.06593972     1.34870
C1208       C  0.69617790  0.32768544  0.06384262     0.86290
O1209       O  0.65037350  0.39608116  0.09447639    -0.77770
O1210       O  0.69835773  0.42178291  0.09310634    -0.88050
C1211       C  0.58550837  0.36094584  0.04969210     0.85860
O1212       O  0.71497817  0.42351341  0.02727201    -0.66250
O1213       O  0.68572679  0.32693178  0.98129035    -0.85540
C1214       C  0.67882711  0.42226115  0.01750519     0.86690
C1215       C  0.66989113  0.41188949  0.10684985     1.08260
H1216       H  0.66694852  0.37466153  0.99654669     0.40060
O1217       O  0.67129703  0.36560427  0.01576324    -1.08200
O1218       O  0.72341552  0.34109660  0.05662090    -0.64850
Ni1219     Ni  0.72776907  0.36497615  0.02652409     1.26350
O1220       O  0.65415557  0.40854157  0.02911580    -0.65080
O1221       O  0.74173179  0.34600952  0.99186375    -0.77370
C1222       C  0.79928951  0.38341541  0.04890854     0.86080
O1223       O  0.78225745  0.36570962  0.04043687    -0.64540
Ni1224     Ni  0.64408760  0.33782880  0.00867565     1.27450
Ni1225     Ni  0.65893502  0.38166809  0.05457657     1.26060
H1226       H  0.72021116  0.37577168  0.08214518     0.40620
O1227       O  0.85375814  0.39911337  0.08002995    -0.79340
O1228       O  0.53190543  0.37714024  0.07556397    -0.64020
O1229       O  0.92296029  0.38358887  0.05683273    -1.10630
C1230       C  0.90664655  0.32124398  0.12697030     1.07550
O1231       O  0.53177736  0.34098744  0.07291931    -0.77230
O1232       O  0.96460510  0.31997300  0.05979280    -0.64810
Ni1233     Ni  0.89775104  0.41155064  0.05768946     1.34870
C1234       C  0.93485770  0.32575224  0.04227621     0.86290
O1235       O  0.49028003  0.40093488  0.03238284    -0.77770
O1236       O  0.93801676  0.42431331  0.03163131    -0.88050
C1237       C  0.54785196  0.35952459  0.06710897     0.85860
O1238       O  0.92411170  0.42325576  0.09691671    -0.66250
O1239       O  0.94425189  0.31785781  0.12463670    -0.85540
C1240       C  0.96024507  0.42069845  0.10714760     0.86690
C1241       C  0.97118039  0.41751709  0.02124205     1.08260
H1242       H  0.96425070  0.36607417  0.12052358     0.40060
O1243       O  0.96130760  0.35984641  0.09896544    -1.08200
O1244       O  0.91098646  0.34084494  0.04991704    -0.64850
Ni1245     Ni  0.90617753  0.36085587  0.08565352     1.26350
O1246       O  0.98172773  0.40480419  0.09787809    -0.65080
O1247       O  0.88905355  0.33768599  0.11395116    -0.77370
C1248       C  0.83691730  0.38223158  0.06756534     0.86080
O1249       O  0.85315311  0.36367770  0.07046028    -0.64540
Ni1250     Ni  0.98695572  0.33133514  0.09927946     1.27450
Ni1251     Ni  0.97739478  0.38106556  0.06659609     1.26060
H1252       H  0.91904591  0.37864303  0.03460455     0.40620
O1253       O  0.71751909  0.65302523  0.30506789    -0.79340
O1254       O  0.89520426  0.62986043  0.30685235    -0.64020
O1255       O  0.78650540  0.63241184  0.27970719    -1.10630
C1256       C  0.77937964  0.57847615  0.36231592     1.07550
O1257       O  0.89518090  0.59410183  0.30001309    -0.77230
O1258       O  0.82456944  0.56998414  0.28562863    -0.64810
Ni1259     Ni  0.76082831  0.66082680  0.27666246     1.34870
C1260       C  0.78809417  0.57192477  0.27609668     0.86290
O1261       O  0.85767928  0.65365998  0.26147579    -0.77770
O1262       O  0.80159675  0.67206854  0.24808868    -0.88050
C1263       C  0.91218747  0.61153575  0.31036235     0.85860
O1264       O  0.78496915  0.67453660  0.31407391    -0.66250
O1265       O  0.81158124  0.57087299  0.35119484    -0.85540
C1266       C  0.81413888  0.66910097  0.33260232     0.86690
C1267       C  0.83893466  0.66849893  0.24557854     1.08260
H1268       H  0.83079093  0.61625748  0.34497512     0.40060
O1269       O  0.82614973  0.61053948  0.32325040    -1.08200
O1270       O  0.76622650  0.58773407  0.28523725    -0.64850
Ni1271     Ni  0.77144565  0.61282861  0.31423552     1.26350
O1272       O  0.83743951  0.65338281  0.32649912    -0.65080
O1273       O  0.75983972  0.59464993  0.35045435    -0.77370
C1274       C  0.70104285  0.63494772  0.31240615     0.86080
O1275       O  0.71666748  0.61676153  0.30611102    -0.64540
Ni1276     Ni  0.85143141  0.58263043  0.32381120     1.27450
Ni1277     Ni  0.84180927  0.63198936  0.29234456     1.26060
H1278       H  0.78317215  0.62518085  0.25889748     0.40620
O1279       O  0.64694791  0.65284269  0.33676600    -0.79340
O1280       O  0.96832735  0.62945355  0.33251405    -0.64020
O1281       O  0.57714997  0.63168101  0.36138383    -1.10630
C1282       C  0.58519741  0.58093315  0.27752454     1.07550
O1283       O  0.96727907  0.59338727  0.33618229    -0.77230
O1284       O  0.53605426  0.57255251  0.35657610    -0.64810
Ni1285     Ni  0.60374998  0.65969418  0.36551845     1.34870
C1286       C  0.57190699  0.57429890  0.36712816     0.86290
O1287       O  0.50634101  0.65244118  0.37959235    -0.77770
O1288       O  0.56327003  0.66983027  0.39429873    -0.88050
C1289       C  0.95119652  0.61127065  0.32693606     0.85860
O1290       O  0.57976914  0.67438128  0.32877035    -0.66250
O1291       O  0.55688365  0.57116777  0.29171408    -0.85540
C1292       C  0.55110927  0.66926122  0.30964908     0.86690
C1293       C  0.52589935  0.66645509  0.39634662     1.08260
H1294       H  0.53321650  0.61722379  0.29494655     0.40060
O1295       O  0.53782804  0.61109943  0.31654661    -1.08200
O1296       O  0.59640320  0.58798304  0.35522281    -0.64850
Ni1297     Ni  0.59255793  0.61337681  0.32636449     1.26350
O1298       O  0.52724563  0.65363379  0.31499324    -0.65080
O1299       O  0.60448130  0.59700756  0.28918724    -0.77370
C1300       C  0.66328916  0.63488960  0.32926523     0.86080
O1301       O  0.64729832  0.61673956  0.33536762    -0.64540
Ni1302     Ni  0.51366154  0.58284957  0.31553193     1.27450
Ni1303     Ni  0.52187950  0.63147054  0.34809545     1.26060
H1304       H  0.58017992  0.62392217  0.38195216     0.40620
O1305       O  0.85104027  0.34587419  0.53545866    -0.79340
O1306       O  0.52963180  0.36881353  0.54464360    -0.64020
O1307       O  0.92153599  0.36070117  0.56077447    -1.10630
C1308       C  0.90241391  0.42514015  0.49496883     1.07550
O1309       O  0.52844779  0.40476864  0.55016976    -0.77230
O1310       O  0.96089505  0.42589508  0.56117915    -0.64810
Ni1311     Ni  0.89716283  0.33267986  0.55626136     1.34870
C1312       C  0.93289580  0.41938978  0.57890582     0.86290
O1313       O  0.98969333  0.34354372  0.58542698    -0.77770
O1314       O  0.93915322  0.31910503  0.58139781    -0.88050
C1315       C  0.54535315  0.38625655  0.55475599     0.85860
O1316       O  0.92226206  0.32313976  0.51593197    -0.66250
O1317       O  0.94032838  0.42781989  0.49616203    -0.85540
C1318       C  0.95854870  0.32587037  0.50746183     0.86690
C1319       C  0.97117625  0.32647352  0.59459615     1.08260
H1320       H  0.95923482  0.38041612  0.49924433     0.40060
O1321       O  0.95759677  0.38606647  0.52114766    -1.08200
O1322       O  0.91036821  0.40331249  0.57175208    -0.64850
Ni1323     Ni  0.90319624  0.38456503  0.53431830     1.26350
O1324       O  0.98007584  0.34124522  0.51934158    -0.65080
O1325       O  0.88488939  0.40901601  0.50830162    -0.77370
C1326       C  0.83440650  0.36209143  0.54947054     0.86080
O1327       O  0.85073541  0.38078207  0.54914737    -0.64540
Ni1328     Ni  0.98328491  0.41450729  0.52256453     1.27450
Ni1329     Ni  0.97552246  0.36405721  0.55214415     1.26060
H1330       H  0.91828084  0.36455690  0.58340940     0.40620
O1331       O  0.73172319  0.59511642  0.83128791    -0.79340
O1332       O  0.90955142  0.61695752  0.83064448    -0.64020
O1333       O  0.80304786  0.61323882  0.85950595    -1.10630
C1334       C  0.79090125  0.67303867  0.78674830     1.07550
O1335       O  0.91128762  0.65194879  0.84356650    -0.77230
O1336       O  0.84274554  0.67401227  0.86574595    -0.64810
Ni1337     Ni  0.77631339  0.58517591  0.85896784     1.34870
C1338       C  0.80673401  0.67176153  0.87482641     0.86290
O1339       O  0.87465318  0.58964007  0.87224610    -0.77770
O1340       O  0.81856176  0.57191842  0.88581969    -0.88050
C1341       C  0.92656501  0.63543006  0.82954916     0.85860
O1342       O  0.79833208  0.57289008  0.82070675    -0.66250
O1343       O  0.82256770  0.68020454  0.80078430    -0.85540
C1344       C  0.82611868  0.57905619  0.80246822     0.86690
C1345       C  0.85651193  0.57413551  0.88652479     1.08260
H1346       H  0.84265871  0.63404030  0.79669687     0.40060
O1347       O  0.83969902  0.63794448  0.81934600    -1.08200
O1348       O  0.78312021  0.65781566  0.86170958    -0.64850
Ni1349     Ni  0.78565525  0.63526112  0.82845914     1.26350
O1350       O  0.84884532  0.59516568  0.80889237    -0.65080
O1351       O  0.77203741  0.65594386  0.79528264    -0.77370
C1352       C  0.71501393  0.61367515  0.82686387     0.86080
O1353       O  0.73131446  0.63115697  0.83630451    -0.64540
Ni1354     Ni  0.86513367  0.66568841  0.82411833     1.27450
Ni1355     Ni  0.85722330  0.61403495  0.84596292     1.26060
H1356       H  0.80196981  0.61903127  0.88136736     0.40620
O1357       O  0.54165047  0.71035889  0.13379177    -0.79340
O1358       O  0.95346081  0.74962527  0.25731787    -0.64020
O1359       O  0.98933572  0.73620738  0.17191480    -1.10630
C1360       C  0.58472585  0.79014229  0.18976831     1.07550
O1361       O  0.97204058  0.78460126  0.26120284    -0.77230
O1362       O  0.97547829  0.79455285  0.19447704    -0.64810
Ni1363     Ni  0.99558758  0.70563761  0.16153856     1.34870
C1364       C  0.98364888  0.79113580  0.16471550     0.86290
O1365       O  0.92255997  0.72630550  0.20853037    -0.77770
O1366       O  0.94859199  0.69665141  0.18550028    -0.88050
C1367       C  0.95589846  0.76750357  0.27269531     0.85860
O1368       O  0.52945298  0.69955901  0.19902303    -0.66250
O1369       O  0.55578189  0.79964603  0.20303208    -0.85540
C1370       C  0.52102486  0.70395941  0.22838112     0.86690
C1371       C  0.92071806  0.70630534  0.20047925     1.08260
H1372       H  0.53654644  0.75267623  0.23566166     0.40060
O1373       O  0.51884588  0.75935854  0.21951409    -1.08200
O1374       O  0.01011078  0.77753208  0.15595999    -0.64850
Ni1375     Ni  0.53737467  0.75302568  0.17692915     1.26350
O1376       O  0.49599154  0.71847163  0.23603810    -0.65080
O1377       O  0.58471098  0.76991139  0.18320416    -0.77370
C1378       C  0.55905803  0.72718971  0.12208955     0.86080
O1379       O  0.55567162  0.74604873  0.13443801    -0.64540
Ni1380     Ni  0.51299891  0.78990025  0.22992876     1.27450
Ni1381     Ni  0.97040908  0.74287230  0.21447859     1.26060
H1382       H  0.97161739  0.74274673  0.15560406     0.40620
O1383       O  0.64908967  0.71419942  0.02868014    -0.79340
O1384       O  0.68783702  0.75124323  0.88449588    -0.64020
O1385       O  0.67626490  0.73989637  0.97605733    -1.10630
C1386       C  0.56055246  0.78336205  0.96330344     1.07550
O1387       O  0.67090550  0.78642807  0.88709964    -0.77230
O1388       O  0.66585465  0.79777779  0.95189713    -0.64810
Ni1389     Ni  0.68403114  0.71020851  0.99158904     1.34870
C1390       C  0.66227234  0.79348580  0.98208013     0.86290
O1391       O  0.73565572  0.73111672  0.92874399    -0.77770
O1392       O  0.72171360  0.70147116  0.95805248    -0.88050
C1393       C  0.68244954  0.76989018  0.87113802     0.85860
O1394       O  0.64095211  0.70074162  0.96424835    -0.66250
O1395       O  0.58399993  0.79476511  0.94603704    -0.85540
C1396       C  0.63962258  0.70374456  0.93348520     0.86690
C1397       C  0.74205244  0.71113147  0.93629558     1.08260
H1398       H  0.61382547  0.75053950  0.91696482     0.40060
O1399       O  0.63228194  0.75850383  0.93096656    -1.08200
O1400       O  0.64156511  0.77785209  0.99293725    -0.64850
Ni1401     Ni  0.62154916  0.75123872  0.97493790     1.26350
O1402       O  0.65868184  0.71847071  0.91833306    -0.65080
O1403       O  0.56861682  0.76375870  0.97228227    -0.77370
C1404       C  0.62200791  0.72762242  0.03700181     0.86080
O1405       O  0.61018421  0.74331912  0.01887851    -0.64540
Ni1406     Ni  0.62878742  0.78877024  0.91836455     1.27450
Ni1407     Ni  0.68402766  0.74524731  0.93026067     1.26060
H1408       H  0.69390663  0.74935792  0.98864225     0.40620
O1409       O  0.73583619  0.71736898  0.61743529    -0.79340
O1410       O  0.69293382  0.75493869  0.75819193    -0.64020
O1411       O  0.70636167  0.74358789  0.66759757    -1.10630
C1412       C  0.81878923  0.78890063  0.67869101     1.07550
O1413       O  0.71156459  0.78993554  0.75768013    -0.77230
O1414       O  0.71290110  0.80154206  0.69121340    -0.64810
Ni1415     Ni  0.70100924  0.71344688  0.65417500     1.34870
C1416       C  0.71685452  0.79768583  0.66091324     0.86290
O1417       O  0.64668243  0.73521155  0.71361705    -0.77770
O1418       O  0.66336406  0.70496218  0.68745367    -0.88050
C1419       C  0.69918645  0.77293782  0.77256417     0.85860
O1420       O  0.74418266  0.70507269  0.68275674    -0.66250
O1421       O  0.79469562  0.80000501  0.69549276    -0.85540
C1422       C  0.74400929  0.70830860  0.71341908     0.86690
C1423       C  0.64163500  0.71504052  0.70746049     1.08260
H1424       H  0.76804753  0.75497999  0.72650531     0.40060
O1425       O  0.74937451  0.76283735  0.71239068    -1.08200
O1426       O  0.73822044  0.78234153  0.65018960    -0.64850
Ni1427     Ni  0.75997358  0.75587309  0.66833904     1.26350
O1428       O  0.72337396  0.72285345  0.72704993    -0.65080
O1429       O  0.81208135  0.76910646  0.67054179    -0.77370
C1430       C  0.76032766  0.73175296  0.60754635     0.86080
O1431       O  0.77071512  0.74826306  0.62429918    -0.64540
Ni1432     Ni  0.75156354  0.79314829  0.72443660     1.27450
Ni1433     Ni  0.69792937  0.74928468  0.71289250     1.26060
H1434       H  0.68820585  0.75244217  0.65437363     0.40620
O1435       O  0.82824250  0.71260634  0.50647084    -0.79340
O1436       O  0.91634653  0.74888142  0.38088993    -0.64020
O1437       O  0.88320238  0.73690291  0.46775224    -1.10630
C1438       C  0.79193336  0.79298481  0.44936881     1.07550
O1439       O  0.90668044  0.78492165  0.37984712    -0.77230
O1440       O  0.89981742  0.79654505  0.44508093    -0.64810
Ni1441     Ni  0.87405463  0.70664039  0.47958341     1.34870
C1442       C  0.89161205  0.79312563  0.47487468     0.86290
O1443       O  0.94683467  0.72481224  0.42968321    -0.77770
O1444       O  0.92035290  0.69656370  0.45680750    -0.88050
C1445       C  0.91781013  0.76728668  0.36662291     0.85860
O1446       O  0.84020286  0.70005071  0.44226645    -0.66250
O1447       O  0.82008369  0.80168805  0.43377747    -0.85540
C1448       C  0.84761537  0.70437468  0.41257661     0.86690
C1449       C  0.94792638  0.70527887  0.44031452     1.08260
H1450       H  0.83564154  0.75481786  0.40481616     0.40060
O1451       O  0.85465173  0.76089961  0.42037957    -1.08200
O1452       O  0.86619982  0.77896603  0.48385577    -0.64850
Ni1453     Ni  0.83704209  0.75508601  0.46356021     1.26350
O1454       O  0.87204911  0.71907004  0.40405532    -0.65080
O1455       O  0.79130659  0.77305891  0.45800038    -0.77370
C1456       C  0.81506301  0.73004606  0.51924991     0.86080
O1457       O  0.82024987  0.74876872  0.50668238    -0.64540
Ni1458     Ni  0.86373890  0.79117463  0.40886558     1.27450
Ni1459     Ni  0.90087560  0.74276594  0.42443433     1.26060
H1460       H  0.90220070  0.74303412  0.48332900     0.40620
O1461       O  0.84804534  0.90604943  0.59231103    -0.79340
O1462       O  0.52590012  0.88106409  0.58166837    -0.64020
O1463       O  0.91675052  0.88994769  0.56699118    -1.10630
C1464       C  0.90201099  0.82785674  0.63735621     1.07550
O1465       O  0.52326145  0.84491278  0.57986609    -0.77230
O1466       O  0.95455423  0.82413813  0.57113908    -0.64810
Ni1467     Ni  0.89366267  0.91822962  0.57075645     1.34870
C1468       C  0.92628012  0.83057121  0.55238554     0.86290
O1469       O  0.48317911  0.90561387  0.54029344    -0.77770
O1470       O  0.93431521  0.93085090  0.54484258    -0.88050
C1471       C  0.54021043  0.86299793  0.57333541     0.85860
O1472       O  0.92266343  0.92827073  0.61030381    -0.66250
O1473       O  0.93974080  0.82513727  0.63661032    -0.85540
C1474       C  0.95995881  0.92578117  0.61750255     0.86690
C1475       C  0.96481426  0.92293574  0.53131084     1.08260
H1476       H  0.95883393  0.87186568  0.62905379     0.40060
O1477       O  0.95547507  0.86543186  0.60765641    -1.08200
O1478       O  0.90471620  0.84715373  0.55821602    -0.64850
Ni1479     Ni  0.90013400  0.86688429  0.59473629     1.26350
O1480       O  0.97991057  0.90999950  0.60588251    -0.65080
O1481       O  0.88347121  0.84320590  0.62223466    -0.77370
C1482       C  0.82979361  0.88941603  0.57995332     0.86080
O1483       O  0.84649297  0.87076822  0.58021379    -0.64540
Ni1484     Ni  0.98038004  0.83680524  0.60854367     1.27450
Ni1485     Ni  0.97136456  0.88621995  0.57492090     1.26060
H1486       H  0.91132743  0.88568068  0.54462126     0.40620
O1487       O  0.77366947  0.90973799  0.55884153    -0.79340
O1488       O  0.59045591  0.88131357  0.54526878    -0.64020
O1489       O  0.69875781  0.89092677  0.56888659    -1.10630
C1490       C  0.71766579  0.83304060  0.49463955     1.07550
O1491       O  0.59571778  0.84556083  0.55085038    -0.77230
O1492       O  0.66396295  0.82537563  0.55951210    -0.64810
Ni1493     Ni  0.71975567  0.91980555  0.56597332     1.34870
C1494       C  0.68881974  0.83255980  0.58058536     0.86290
O1495       O  0.62733620  0.90491799  0.59056286    -0.77770
O1496       O  0.66888627  0.93077367  0.57663414    -0.88050
C1497       C  0.57694915  0.86324407  0.55513654     0.85860
O1498       O  0.70487110  0.92293280  0.52006469    -0.66250
O1499       O  0.68016438  0.82987720  0.49433474    -0.85540
C1500       C  0.66849743  0.92212777  0.50959313     0.86690
C1501       C  0.64924381  0.92088492  0.59811766     1.08260
H1502       H  0.66220845  0.87414047  0.50342807     0.40060
O1503       O  0.66393256  0.86749748  0.52490275    -1.08200
O1504       O  0.71066600  0.84913833  0.57610130    -0.64850
Ni1505     Ni  0.71809711  0.86939079  0.54088605     1.26350
O1506       O  0.64201916  0.91072428  0.52402269    -0.65080
O1507       O  0.73635442  0.84683612  0.51265018    -0.77370
C1508       C  0.78894037  0.89096669  0.56551778     0.86080
O1509       O  0.77081607  0.87306215  0.55891229    -0.64540
Ni1510     Ni  0.63899335  0.83910397  0.52233928     1.27450
Ni1511     Ni  0.64414931  0.88694185  0.55635389     1.26060
H1512       H  0.70245896  0.88631701  0.59139621     0.40620
O1513       O  0.73360758  0.21453183  0.09612005    -0.79340
O1514       O  0.68207708  0.24946482  0.23670063    -0.64020
O1515       O  0.70425907  0.23908069  0.14740383    -1.10630
C1516       C  0.81927092  0.28240369  0.16619438     1.07550
O1517       O  0.70314632  0.28415653  0.23829247    -0.77230
O1518       O  0.71361183  0.29665570  0.17403920    -0.64810
Ni1519     Ni  0.69727982  0.20955709  0.13181772     1.34870
C1520       C  0.71940514  0.29289686  0.14406409     0.86290
O1521       O  0.64020724  0.23017639  0.18963358    -0.77770
O1522       O  0.65822319  0.20012500  0.16395186    -0.88050
C1523       C  0.68424697  0.26797926  0.25036674     0.85860
O1524       O  0.73900265  0.20030598  0.16091878    -0.66250
O1525       O  0.79500255  0.29325771  0.18337709    -0.85540
C1526       C  0.73727893  0.20270933  0.19170461     0.86690
C1527       C  0.63558274  0.20991278  0.18368056     1.08260
H1528       H  0.76140951  0.24834644  0.21006165     0.40060
O1529       O  0.74448275  0.25679761  0.19526099    -1.08200
O1530       O  0.74031113  0.27728830  0.13376419    -0.64850
Ni1531     Ni  0.75882882  0.25030551  0.15176638     1.26350
O1532       O  0.71596337  0.21687366  0.20576020    -0.65080
O1533       O  0.81176162  0.26285181  0.15691647    -0.77370
C1534       C  0.76104262  0.22815100  0.08913211     0.86080
O1535       O  0.77284052  0.24316844  0.10827622    -0.64540
Ni1536     Ni  0.74792769  0.28676507  0.20897416     1.27450
Ni1537     Ni  0.69213160  0.24393224  0.19209069     1.26060
H1538       H  0.68787346  0.24866660  0.13377441     0.40620
O1539       O  0.55849358  0.21184005  0.62309574    -0.79340
O1540       O  0.98695678  0.25231066  0.75320876    -0.64020
O1541       O  0.51624439  0.23837768  0.66654389    -1.10630
C1542       C  0.62191361  0.28621278  0.67740594     1.07550
O1543       O  0.02391701  0.28206906  0.76402954    -0.77230
O1544       O  0.01748681  0.29487024  0.69872616    -0.64810
Ni1545     Ni  0.51535573  0.20823884  0.65374644     1.34870
C1546       C  0.01987226  0.29208819  0.66805772     0.86290
O1547       O  0.94968349  0.23177356  0.70419106    -0.77770
O1548       O  0.96958848  0.20105834  0.67997351    -0.88050
C1549       C  0.99772160  0.26794069  0.77168275     0.85860
O1550       O  0.55119992  0.19984122  0.68890690    -0.66250
O1551       O  0.59833061  0.29630408  0.69595451    -0.85540
C1552       C  0.54450455  0.20345484  0.71887459     0.86690
C1553       C  0.94391919  0.21196896  0.69556454     1.08260
H1554       H  0.57203856  0.24800801  0.72840947     0.40060
O1555       O  0.55518620  0.25703405  0.71432677    -1.08200
O1556       O  0.54292592  0.27840241  0.65496311    -0.64850
Ni1557     Ni  0.56767563  0.25185463  0.66989775     1.26350
O1558       O  0.52146448  0.21835279  0.72858743    -0.65080
O1559       O  0.61881632  0.26578617  0.67293216    -0.77370
C1560       C  0.57450291  0.22880140  0.61059911     0.86080
O1561       O  0.57771903  0.24675714  0.62547109    -0.64540
Ni1562     Ni  0.55985287  0.28701582  0.72834010     1.27450
Ni1563     Ni  0.50155408  0.24498741  0.70985924     1.26060
H1564       H  0.99894792  0.24636168  0.65143283     0.40620
O1565       O  0.63254720  0.21862987  0.50420716    -0.79340
O1566       O  0.64873935  0.25225665  0.35716041    -0.64020
O1567       O  0.65049003  0.24412400  0.44931363    -1.10630
C1568       C  0.53045016  0.28579691  0.45076492     1.07550
O1569       O  0.61405261  0.28345479  0.35253490    -0.77230
O1570       O  0.62503270  0.30040650  0.41420482    -0.64810
Ni1571     Ni  0.66456781  0.21539588  0.46608983     1.34870
C1572       C  0.63092098  0.29854980  0.44483662     0.86290
O1573       O  0.70405788  0.23622905  0.39761406    -0.77770
O1574       O  0.70074731  0.20766415  0.43136605    -0.88050
C1575       C  0.63649753  0.26872395  0.34090025     0.85860
O1576       O  0.62138673  0.20212790  0.44293187    -0.66250
O1577       O  0.54569395  0.29511660  0.42602062    -0.85540
C1578       C  0.61565736  0.20419959  0.41235832     0.86690
C1579       C  0.71647145  0.21739902  0.40730374     1.08260
H1580       H  0.57700701  0.24818649  0.39913002     0.40060
O1581       O  0.59586647  0.25850104  0.40852702    -1.08200
O1582       O  0.61795475  0.28304879  0.46245581    -0.64850
Ni1583     Ni  0.59620210  0.25480714  0.45491057     1.26350
O1584       O  0.62888593  0.21976727  0.39510999    -0.65080
O1585       O  0.54273005  0.26695780  0.46068238    -0.77370
C1586       C  0.61072790  0.23323969  0.51660393     0.86080
O1587       O  0.59821859  0.25007762  0.50109403    -0.64540
Ni1588     Ni  0.58184664  0.28706835  0.39107540     1.27450
Ni1589     Ni  0.65031620  0.24795258  0.40311421     1.26060
H1590       H  0.66943482  0.25433747  0.45881819     0.40620
O1591       O  0.84213760  0.21211114  0.99457659    -0.79340
O1592       O  0.93900913  0.25059994  0.87384750    -0.64020
O1593       O  0.89484409  0.23750141  0.95674141    -1.10630
C1594       C  0.80039473  0.29132576  0.93274970     1.07550
O1595       O  0.91974326  0.28535327  0.86707005    -0.77230
O1596       O  0.91007631  0.29563832  0.93270539    -0.64810
Ni1597     Ni  0.88818824  0.20699317  0.96766314     1.34870
C1598       C  0.90002876  0.29208207  0.96205346     0.86290
O1599       O  0.96446868  0.22724602  0.92464337    -0.77770
O1600       O  0.93505935  0.19745980  0.94461669    -0.88050
C1601       C  0.93924772  0.26859769  0.85832050     0.85860
O1602       O  0.85521180  0.20178770  0.92970611    -0.66250
O1603       O  0.83005457  0.30071029  0.91988107    -0.85540
C1604       C  0.86595529  0.20556966  0.90063423     0.86690
C1605       C  0.96453390  0.20698606  0.93158052     1.08260
H1606       H  0.85285388  0.25347516  0.88999637     0.40060
O1607       O  0.86916052  0.26031826  0.90683877    -1.08200
O1608       O  0.87262303  0.27873107  0.96989561    -0.64850
Ni1609     Ni  0.84704940  0.25417169  0.94848000     1.26350
O1610       O  0.89287631  0.21930465  0.89340585    -0.65080
O1611       O  0.80004521  0.27103383  0.93941009    -0.77370
C1612       C  0.82334606  0.22892605  0.00417508     0.86080
O1613       O  0.82557295  0.24742903  0.99011564    -0.64540
Ni1614     Ni  0.87548854  0.29079593  0.89557057     1.27450
Ni1615     Ni  0.91730200  0.24387951  0.91531866     1.26060
H1616       H  0.91115845  0.24416605  0.97374050     0.40620
O1617       O  0.74453187  0.02966009  0.01052054    -0.79340
O1618       O  0.73431118  0.99976862  0.86334442    -0.64020
O1619       O  0.72699180  0.00537381  0.95452146    -1.10630
C1620       C  0.84707445  0.96245364  0.95868039     1.07550
O1621       O  0.75137727  0.96469187  0.86417497    -0.77230
O1622       O  0.75370441  0.94672341  0.92405375    -0.64810
Ni1623     Ni  0.71216022  0.03352026  0.97180556     1.34870
C1624       C  0.74601594  0.94965166  0.95375214     0.86290
O1625       O  0.67716014  0.01529801  0.89906776    -0.77770
O1626       O  0.67591377  0.04165700  0.93621062    -0.88050
C1627       C  0.73374219  0.98105538  0.85088797     0.85860
O1628       O  0.75404097  0.04857733  0.95117364    -0.66250
O1629       O  0.83349522  0.95469275  0.93166309    -0.85540
C1630       C  0.76235338  0.04684855  0.92131042     0.86690
C1631       C  0.66302884  0.03312706  0.90981515     1.08260
H1632       H  0.80172408  0.00018981  0.90896300     0.40060
O1633       O  0.78153588  0.99039517  0.91706833    -1.08200
O1634       O  0.75661303  0.96605000  0.97045009    -0.64850
Ni1635     Ni  0.78037709  0.99352104  0.96316079     1.26350
O1636       O  0.75273793  0.03084273  0.90322735    -0.65080
O1637       O  0.83256152  0.97981101  0.97138643    -0.77370
C1638       C  0.76499933  0.01442822  0.02374816     0.86080
O1639       O  0.77754327  0.99776593  0.00887628    -0.64540
Ni1640     Ni  0.79181899  0.96179772  0.89899204     1.27450
Ni1641     Ni  0.72940444  0.00279745  0.90848491     1.26060
H1642       H  0.70723821  0.99506648  0.96190049     0.40620
O1643       O  0.81789244  0.03460743  0.12910913    -0.79340
O1644       O  0.90278185  0.99547276  0.25743078    -0.64020
O1645       O  0.86436512  0.00869319  0.17198485    -1.10630
C1646       C  0.76331807  0.95862842  0.18638312     1.07550
O1647       O  0.87385576  0.96311775  0.26716404    -0.77230
O1648       O  0.87014438  0.95153086  0.20252542    -0.64810
Ni1649     Ni  0.86289718  0.03887932  0.15863446     1.34870
C1650       C  0.86369949  0.95470912  0.17216256     0.86290
O1651       O  0.93363583  0.01678296  0.20826648    -0.77770
O1652       O  0.90963160  0.04711877  0.18434004    -0.88050
C1653       C  0.89861276  0.97827440  0.27429395     0.85860
O1654       O  0.82924437  0.04663093  0.19345201    -0.66250
O1655       O  0.78935416  0.94888510  0.20437978    -0.85540
C1656       C  0.83843806  0.04337255  0.22337552     0.86690
C1657       C  0.93703717  0.03677322  0.19991795     1.08260
H1658       H  0.81591011  0.99696021  0.23555916     0.40060
O1659       O  0.83204201  0.98865562  0.22077600    -1.08200
O1660       O  0.83854658  0.96831975  0.16036205    -0.64850
Ni1661     Ni  0.81421145  0.99415834  0.17698206     1.26350
O1662       O  0.86250501  0.02861511  0.23352946    -0.65080
O1663       O  0.76455795  0.97912953  0.18164687    -0.77370
C1664       C  0.80069914  0.01758910  0.11796213     0.86080
O1665       O  0.79868622  0.99970508  0.13333524    -0.64540
Ni1666     Ni  0.83207021  0.95832872  0.23441927     1.27450
Ni1667     Ni  0.88351511  0.00242578  0.21488759     1.26060
H1668       H  0.88067446  0.00096988  0.15673721     0.40620
O1669       O  0.64850684  0.02899386  0.60885155    -0.79340
O1670       O  0.66212772  0.00246327  0.75874144    -0.64020
O1671       O  0.66550094  0.00589331  0.66662743    -1.10630
C1672       C  0.54031685  0.96671970  0.66820026     1.07550
O1673       O  0.63799709  0.96857033  0.76102494    -0.77230
O1674       O  0.63282219  0.94924260  0.70344684    -0.64810
Ni1675     Ni  0.68309763  0.03281401  0.64638766     1.34870
C1676       C  0.64078280  0.95106818  0.67360560     0.86290
O1677       O  0.71863363  0.01628682  0.72039804    -0.77770
O1678       O  0.72108845  0.04128794  0.68083046    -0.88050
C1679       C  0.65967544  0.98395502  0.77236552     0.85860
O1680       O  0.64322262  0.04942598  0.66606595    -0.66250
O1681       O  0.55373397  0.95939766  0.69566459    -0.85540
C1682       C  0.63505704  0.04887352  0.69600946     0.86690
C1683       C  0.73373667  0.03357600  0.70809778     1.08260
H1684       H  0.59233888  0.00447818  0.71423989     0.40060
O1685       O  0.61096144  0.99370400  0.70658176    -1.08200
O1686       O  0.63135690  0.96713311  0.65526289    -0.64850
Ni1687     Ni  0.61042799  0.99553242  0.66024979     1.26350
O1688       O  0.64416358  0.03351018  0.71592292    -0.65080
O1689       O  0.55643488  0.98324762  0.65404295    -0.77370
C1690       C  0.62349827  0.01510508  0.59793568     0.86080
O1691       O  0.61108775  0.99878820  0.61408630    -0.64540
Ni1692     Ni  0.59679787  0.96623946  0.72718750     1.27450
Ni1693     Ni  0.66492239  0.00467590  0.71300219     1.26060
H1694       H  0.68372094  0.99470234  0.65965698     0.40620
O1695       O  0.55294771  0.03753934  0.49725086    -0.79340
O1696       O  0.96894793  0.99750098  0.36925516    -0.64020
O1697       O  0.50584137  0.01152720  0.45476385    -1.10630
C1698       C  0.60787431  0.96081990  0.44343753     1.07550
O1699       O  0.99745673  0.96475638  0.36206883    -0.77230
O1700       O  0.00136563  0.95329850  0.42657214    -0.64810
Ni1701     Ni  0.50744561  0.04177287  0.46747236     1.34870
C1702       C  0.00715947  0.95686511  0.45679627     0.86290
O1703       O  0.93713668  0.02002772  0.41670122    -0.77770
O1704       O  0.96026942  0.05004596  0.44158488    -0.88050
C1705       C  0.97284654  0.97979749  0.35381049     0.85860
O1706       O  0.54094675  0.04969976  0.43231451    -0.66250
O1707       O  0.58229713  0.95106889  0.42517027    -0.85540
C1708       C  0.53280149  0.04594561  0.40236769     0.86690
C1709       C  0.93324672  0.03994187  0.42522862     1.08260
H1710       H  0.55545863  0.99893456  0.39265719     0.40060
O1711       O  0.53888071  0.99080221  0.40741260    -1.08200
O1712       O  0.53120322  0.97102235  0.46835380    -0.64850
Ni1713     Ni  0.55599663  0.99660387  0.45114135     1.26350
O1714       O  0.50939249  0.03088624  0.39244333    -0.65080
O1715       O  0.60587262  0.98129252  0.44815319    -0.77370
C1716       C  0.57071629  0.02060921  0.50873385     0.86080
O1717       O  0.57087926  0.00241666  0.49456901    -0.64540
Ni1718     Ni  0.53940960  0.96035430  0.39478812     1.27450
Ni1719     Ni  0.98736181  0.00503154  0.41178722     1.26060
H1720       H  0.98907360  0.00392270  0.46999163     0.40620
O1721       O  0.64813050  0.09427421  0.29260522    -0.79340
O1722       O  0.97219755  0.12052370  0.29849618    -0.64020
O1723       O  0.57720783  0.11479512  0.26484327    -1.10630
C1724       C  0.59387294  0.17115344  0.33630157     1.07550
O1725       O  0.96908340  0.15673776  0.29122413    -0.77230
O1726       O  0.53755453  0.17172297  0.25621942    -0.64810
Ni1727     Ni  0.60258761  0.08635389  0.26443880     1.34870
C1728       C  0.57396542  0.17075413  0.24742284     0.86290
O1729       O  0.00397521  0.09230807  0.25499417    -0.77770
O1730       O  0.55903403  0.07506606  0.23767652    -0.88050
C1731       C  0.95487570  0.13886894  0.30269522     0.85860
O1732       O  0.58052925  0.07387817  0.30252332    -0.66250
O1733       O  0.57154092  0.18051642  0.31506462    -0.85540
C1734       C  0.55637590  0.08133395  0.32280667     0.86690
C1735       C  0.52120755  0.07738226  0.23881864     1.08260
H1736       H  0.54111083  0.13580868  0.32918720     0.40060
O1737       O  0.54381442  0.13956928  0.30637561    -1.08200
O1738       O  0.59972793  0.15873396  0.26262981    -0.64850
Ni1739     Ni  0.59766127  0.13548527  0.29573617     1.26350
O1740       O  0.53416947  0.09778891  0.31743306    -0.65080
O1741       O  0.61410622  0.15440806  0.32969420    -0.77370
C1742       C  0.66608677  0.11235952  0.29736704     0.86080
O1743       O  0.65138713  0.13006676  0.28667095    -0.64540
Ni1744     Ni  0.52181669  0.16812362  0.30135026     1.27450
Ni1745     Ni  0.52366435  0.11654856  0.28050797     1.26060
H1746       H  0.57768790  0.12093756  0.24304937     0.40620
O1747       O  0.73587497  0.15614016  0.79227843    -0.79340
O1748       O  0.91579526  0.13223343  0.79340831    -0.64020
O1749       O  0.80602819  0.13563781  0.76678366    -1.10630
C1750       C  0.80033043  0.08309496  0.85118652     1.07550
O1751       O  0.91467233  0.09643090  0.78728622    -0.77230
O1752       O  0.84291368  0.07324057  0.77206767    -0.64810
Ni1753     Ni  0.78024453  0.16418314  0.76465141     1.34870
C1754       C  0.80620184  0.07538939  0.76322130     0.86290
O1755       O  0.87775013  0.15692324  0.74849388    -0.77770
O1756       O  0.82200171  0.17639863  0.73781016    -0.88050
C1757       C  0.93189700  0.11367741  0.79813477     0.85860
O1758       O  0.80373159  0.17655154  0.80291923    -0.66250
O1759       O  0.82999582  0.07404678  0.83800623    -0.85540
C1760       C  0.83396535  0.17131089  0.82024243     0.86690
C1761       C  0.85934533  0.17290514  0.73496409     1.08260
H1762       H  0.85148481  0.11931112  0.83162458     0.40060
O1763       O  0.84617854  0.11360705  0.80998012    -1.08200
O1764       O  0.78483286  0.09107412  0.77340700    -0.64850
Ni1765     Ni  0.79139336  0.11633988  0.80187300     1.26350
O1766       O  0.85813140  0.15625212  0.81299818    -0.65080
O1767       O  0.78062845  0.09912233  0.83919777    -0.77370
C1768       C  0.72028654  0.13800738  0.80061786     0.86080
O1769       O  0.73649054  0.12001254  0.79447294    -0.64540
Ni1770     Ni  0.87027295  0.08534324  0.81058423     1.27450
Ni1771     Ni  0.86190414  0.13489921  0.77892177     1.26060
H1772       H  0.80204096  0.12839698  0.74603321     0.40620
O1773       O  0.71985258  0.09570174  0.32772998    -0.79340
O1774       O  0.89967816  0.12028599  0.32419649    -0.64020
O1775       O  0.79146654  0.11734413  0.35142125    -1.10630
C1776       C  0.78065882  0.16975245  0.26723490     1.07550
O1777       O  0.90007476  0.15624836  0.32994280    -0.77230
O1778       O  0.82727599  0.17815990  0.34789565    -0.64810
Ni1779     Ni  0.76606288  0.08884568  0.35596098     1.34870
C1780       C  0.79012353  0.17662182  0.35445670     0.86290
O1781       O  0.86485703  0.09569140  0.36957932    -0.77770
O1782       O  0.80968145  0.07743615  0.38353736    -0.88050
C1783       C  0.91636387  0.13867823  0.31964929     0.85860
O1784       O  0.78723004  0.07556196  0.31863957    -0.66250
O1785       O  0.80935769  0.17919858  0.28242529    -0.85540
C1786       C  0.81487043  0.08102363  0.29991576     0.86690
C1787       C  0.84747129  0.08032664  0.38475800     1.08260
H1788       H  0.83413147  0.13352553  0.28648615     0.40060
O1789       O  0.82931233  0.13905547  0.30809750    -1.08200
O1790       O  0.76818861  0.16145963  0.34245189    -0.64850
Ni1791     Ni  0.77488828  0.13583857  0.31501665     1.26350
O1792       O  0.83929435  0.09648577  0.30546874    -0.65080
O1793       O  0.76291733  0.15265804  0.27709626    -0.77370
C1794       C  0.70398613  0.11317226  0.31631647     0.86080
O1795       O  0.71999739  0.13160951  0.32055867    -0.64540
Ni1796     Ni  0.85250226  0.16747994  0.30841763     1.27450
Ni1797     Ni  0.84673587  0.11783300  0.33920310     1.26060
H1798       H  0.78888013  0.12521019  0.37164397     0.40620
O1799       O  0.66762982  0.15485231  0.82906229    -0.79340
O1800       O  0.98661829  0.13095060  0.82435016    -0.64020
O1801       O  0.59671332  0.13286853  0.85179350    -1.10630
C1802       C  0.60149486  0.08477252  0.76442459     1.07550
O1803       O  0.98588354  0.09483835  0.82581042    -0.77230
O1804       O  0.55723237  0.07371074  0.84482796    -0.64810
Ni1805     Ni  0.62282720  0.16120815  0.85671672     1.34870
C1806       C  0.59435416  0.07466973  0.85242291     0.86290
O1807       O  0.52505330  0.15308339  0.87203031    -0.77770
O1808       O  0.58104757  0.17187043  0.88427535    -0.88050
C1809       C  0.96988370  0.11291782  0.81696158     0.85860
O1810       O  0.60032261  0.17473862  0.81875800    -0.66250
O1811       O  0.57577055  0.07400203  0.78017873    -0.85540
C1812       C  0.57097785  0.16973794  0.80038248     0.86690
C1813       C  0.54394406  0.16800860  0.88737239     1.08260
H1814       H  0.54998821  0.11967538  0.78551229     0.40060
O1815       O  0.55585397  0.11320138  0.80670674    -1.08200
O1816       O  0.61725886  0.08920519  0.84056185    -0.64850
Ni1817     Ni  0.61079516  0.11585930  0.81459504     1.26350
O1818       O  0.54533976  0.15530786  0.80720163    -0.65080
O1819       O  0.62058122  0.10108776  0.77552552    -0.77370
C1820       C  0.68263800  0.13740722  0.81802256     0.86080
O1821       O  0.66598426  0.11912578  0.82153172    -0.64540
Ni1822     Ni  0.53258220  0.08478047  0.80476267     1.27450
Ni1823     Ni  0.54058832  0.13272807  0.83956786     1.26060
H1824       H  0.60080845  0.12445170  0.87167880     0.40620
C1825       C  0.89826180  0.05243960  0.41423242    -0.11720
C1826       C  0.87283528  0.06480022  0.40282977    -0.13280
C1827       C  0.55361537  0.07031262  0.35340040    -0.11720
C1828       C  0.54801484  0.05996678  0.37783110    -0.13280
C1829       C  0.59140774  0.02147574  0.53950970    -0.11720
C1830       C  0.60729558  0.01874908  0.56583066    -0.13280
C1831       C  0.60972094  0.07765817  0.73297102    -0.11720
C1832       C  0.61772574  0.06711157  0.70998015    -0.13280
C1833       C  0.78630241  0.05892861  0.74197127    -0.11720
C1834       C  0.76464279  0.04617493  0.72641033    -0.13280
C1835       C  0.81865871  0.06888341  0.27074610    -0.11720
C1836       C  0.82403513  0.05778796  0.24731388    -0.13280
C1837       C  0.99607198  0.06174314  0.22188412    -0.11720
C1838       C  0.97151619  0.04914876  0.21066475    -0.13280
C1839       C  0.94715186  0.97660544  0.32575371    -0.11720
C1840       C  0.92408607  0.97600656  0.30272999    -0.13280
C1841       C  0.68508986  0.97974999  0.80014364    -0.11720
C1842       C  0.70891362  0.97836547  0.82245914    -0.13280
C1843       C  0.77473053  0.01656042  0.05748738    -0.11720
C1844       C  0.78440021  0.01813864  0.08569090    -0.13280
C1845       C  0.63311459  0.04540834  0.89052843    -0.11720
C1846       C  0.61262145  0.05816530  0.87417017    -0.13280
C1847       C  0.78022840  0.06433625  0.90499254    -0.11720
C1848       C  0.78924596  0.07468972  0.88166831    -0.13280
C1849       C  0.84117968  0.18304858  0.84986253    -0.11720
C1850       C  0.84939005  0.19304856  0.87430449    -0.13280
C1851       C  0.99744591  0.19374444  0.92127505    -0.11720
C1852       C  0.52110801  0.18197651  0.90811103    -0.13280
C1853       C  0.59378054  0.17845658  0.36877591    -0.11720
C1854       C  0.59767749  0.18744468  0.39425787    -0.13280
C1855       C  0.77018153  0.19308231  0.37495170    -0.11720
C1856       C  0.74788342  0.20549586  0.38968071    -0.13280
C1857       C  0.96194157  0.26986512  0.82877796    -0.11720
C1858       C  0.97908519  0.26963571  0.80305283    -0.13280
C1859       C  0.58905349  0.22812794  0.57789147    -0.11720
C1860       C  0.59937891  0.23019800  0.54998587    -0.13280
C1861       C  0.88325626  0.18843113  0.71700170    -0.11720
C1862       C  0.90854372  0.20042222  0.70589081    -0.13280
C1863       C  0.56097137  0.18980275  0.74397243    -0.11720
C1864       C  0.56704041  0.18058083  0.76956853    -0.13280
C1865       C  0.79889506  0.22701381  0.03279596    -0.11720
C1866       C  0.78029554  0.22665783  0.05788670    -0.13280
C1867       C  0.66454954  0.27060572  0.28105473    -0.11720
C1868       C  0.64990376  0.27082814  0.30778942    -0.13280
C1869       C  0.58857379  0.18498235  0.22112077    -0.11720
C1870       C  0.60704750  0.19687226  0.20247825    -0.13280
C1871       C  0.75760331  0.18819100  0.21284501    -0.11720
C1872       C  0.76835121  0.17886504  0.23704443    -0.13280
C1873       C  0.65705049  0.93338894  0.65731779    -0.11720
C1874       C  0.65713513  0.92502570  0.63133926    -0.13280
C1875       C  0.63670895  0.94766677  0.46252724    -0.11720
C1876       C  0.65483702  0.93595026  0.48219083    -0.13280
C1877       C  0.98842658  0.94362208  0.47987974    -0.11720
C1878       C  0.97799332  0.93391355  0.50338187    -0.13280
C1879       C  0.98256591  0.94201432  0.63794017    -0.11720
C1880       C  0.50673929  0.95447035  0.65190730    -0.13280
C1881       C  0.90901730  0.80681055  0.49997727    -0.11720
C1882       C  0.91796140  0.81807264  0.52323916    -0.13280
C1883       C  0.76164237  0.80701848  0.46052129    -0.11720
C1884       C  0.74039830  0.81944582  0.47428611    -0.13280
C1885       C  0.79356762  0.72869798  0.54944628    -0.11720
C1886       C  0.77746801  0.72929818  0.57564899    -0.13280
C1887       C  0.85342399  0.80022454  0.66671876    -0.11720
C1888       C  0.87814064  0.81227328  0.65506614    -0.13280
C1889       C  0.69939836  0.81170530  0.63650893    -0.11720
C1890       C  0.69257171  0.82143344  0.61135152    -0.13280
C1891       C  0.69277682  0.77380410  0.80728710    -0.11720
C1892       C  0.68926606  0.77251681  0.83662571    -0.13280
C1893       C  0.58363843  0.72498327  0.09336038    -0.11720
C1894       C  0.60280299  0.72507577  0.06840483    -0.13280
C1895       C  0.94133181  0.76827240  0.30542595    -0.11720
C1896       C  0.93171058  0.76819252  0.33367489    -0.13280
C1897       C  0.77693442  0.68447003  0.75866242    -0.11720
C1898       C  0.76517220  0.69429509  0.73507781    -0.13280
C1899       C  0.79018823  0.68629599  0.89978866    -0.11720
C1900       C  0.77080857  0.69817794  0.91766065    -0.13280
C1901       C  0.98600964  0.31529387  0.62254299    -0.11720
C1902       C  0.99839174  0.30565253  0.64604580    -0.13280
C1903       C  0.97814536  0.31032095  0.48495964    -0.11720
C1904       C  0.49984236  0.29812996  0.46905989    -0.13280
C1905       C  0.53798838  0.69139618  0.25491392    -0.11720
C1906       C  0.54555156  0.68154674  0.27991454    -0.13280
C1907       C  0.00364417  0.67999028  0.41760864    -0.11720
C1908       C  0.98031023  0.69173795  0.43078772    -0.13280
C1909       C  0.82125684  0.68131678  0.36221920    -0.11720
C1910       C  0.82994559  0.69150295  0.38663700    -0.13280
C1911       C  0.86237182  0.68239439  0.22471080    -0.11720
C1912       C  0.88711317  0.69353622  0.21128554    -0.13280
C1913       C  0.92739671  0.31440765  0.01227742    -0.11720
C1914       C  0.91803991  0.30448372  0.98797864    -0.13280
C1915       C  0.85524307  0.29370876  0.15513855    -0.11720
C1916       C  0.88141077  0.30542235  0.14402245    -0.13280
C1917       C  0.69952421  0.31671462  0.09427464    -0.11720
C1918       C  0.70440196  0.30722301  0.11961259    -0.13280
C1919       C  0.76787716  0.30477750  0.94313442    -0.11720
C1920       C  0.74471467  0.31686002  0.95621082    -0.13280
C1921       C  0.61857409  0.68914233  0.91332012    -0.11720
C1922       C  0.60868470  0.67988190  0.88904369    -0.13280
C1923       C  0.59601825  0.69013017  0.74476168    -0.11720
C1924       C  0.61359330  0.70229697  0.72634067    -0.13280
C1925       C  0.64952349  0.31536551  0.46249590    -0.11720
C1926       C  0.65566668  0.32430547  0.48778799    -0.13280
C1927       C  0.66516891  0.31032092  0.63727145    -0.11720
C1928       C  0.64881138  0.29889611  0.65739874    -0.13280
C1929       C  0.69978307  0.43938960  0.50334876    -0.11720
C1930       C  0.69496432  0.42937839  0.52805980    -0.13280
C1931       C  0.87697550  0.44153758  0.47893683    -0.11720
C1932       C  0.85061419  0.45370564  0.46866554    -0.13280
C1933       C  0.76489382  0.56817775  0.39035733    -0.11720
C1934       C  0.75237880  0.55794501  0.41260532    -0.13280
C1935       C  0.58640007  0.55973749  0.39312654    -0.11720
C1936       C  0.60310831  0.54792209  0.41329306    -0.13280
C1937       C  0.77234357  0.43854408  0.67771717    -0.11720
C1938       C  0.74963656  0.42592248  0.66453019    -0.13280
C1939       C  0.79184311  0.52019891  0.59097102    -0.11720
C1940       C  0.77297240  0.52012735  0.56555051    -0.13280
C1941       C  0.84201594  0.55598304  0.75008307    -0.11720
C1942       C  0.83300726  0.56674631  0.77337493    -0.13280
C1943       C  0.98917080  0.55872003  0.70437737    -0.11720
C1944       C  0.01284097  0.57084714  0.71758566    -0.13280
C1945       C  0.91709400  0.44202695  0.63170715    -0.11720
C1946       C  0.92569048  0.43130595  0.60827797    -0.13280
C1947       C  0.96604622  0.47783411  0.79220295    -0.11720
C1948       C  0.98352860  0.47776096  0.81818448    -0.13280
C1949       C  0.88123133  0.55788055  0.90312619    -0.11720
C1950       C  0.90730222  0.54576024  0.91363764    -0.13280
C1951       C  0.55996033  0.55818678  0.87917721    -0.11720
C1952       C  0.56586687  0.56840202  0.85467441    -0.13280
C1953       C  0.64884835  0.44922887  0.97211104    -0.11720
C1954       C  0.66460582  0.43726552  0.99234943    -0.13280
C1955       C  0.98725245  0.42926155  0.99484675    -0.11720
C1956       C  0.00034328  0.44023605  0.97345370    -0.13280
C1957       C  0.60421870  0.51872343  0.07263261    -0.11720
C1958       C  0.59216005  0.52114690  0.04502382    -0.13280
C1959       C  0.65801754  0.47545493  0.34053903    -0.11720
C1960       C  0.64362813  0.47608797  0.31339735    -0.13280
C1961       C  0.65912366  0.41943629  0.13777449    -0.11720
C1962       C  0.64928220  0.42955037  0.16088499    -0.13280
C1963       C  0.50128568  0.44979993  0.14435816    -0.11720
C1964       C  0.97964129  0.43710318  0.12871797    -0.13280
C1965       C  0.76915868  0.55494303  0.25532600    -0.11720
C1966       C  0.74853693  0.54167056  0.23990220    -0.13280
C1967       C  0.59557534  0.57333254  0.24665921    -0.11720
C1968       C  0.60444524  0.56353175  0.22305663    -0.13280
C1969       C  0.67958994  0.80731219  0.00613622    -0.11720
C1970       C  0.68610219  0.81703494  0.03095919    -0.13280
C1971       C  0.63893270  0.81625010  0.16636240    -0.11720
C1972       C  0.61668779  0.80355856  0.17904914    -0.13280
C1973       C  0.72202713  0.92433763  0.99709724    -0.11720
C1974       C  0.72770763  0.93314685  0.97173076    -0.13280
C1975       C  0.71893552  0.93395352  0.14668840    -0.11720
C1976       C  0.73566307  0.94549266  0.16690966    -0.13280
C1977       C  0.96493557  0.80418201  0.13938315    -0.11720
C1978       C  0.95514121  0.81482210  0.11556559    -0.13280
C1979       C  0.49908748  0.80599011  0.98526070    -0.11720
C1980       C  0.52481723  0.79414754  0.97457467    -0.13280
C1981       C  0.89523492  0.93171156  0.12677630    -0.11720
C1982       C  0.88322026  0.94168897  0.14935398    -0.13280
C1983       C  0.90072532  0.93703424  0.99207678    -0.11720
C1984       C  0.87866828  0.94974257  0.97644526    -0.13280
loop_ 
_geom_bond_atom_site_label_1 
_geom_bond_atom_site_label_2 
_geom_bond_distance 
_geom_bond_site_symmetry_2 
_ccdc_geom_bond_type 
O1           C22   1.281       .  A
O1         Ni999   1.920   1_455  S
O2           C11   1.256       .  A
O2          Ni25   1.870       .  S
O3           Ni7   1.902       .  S
O3          Ni25   1.865       .  S
O3          Ni19   1.901       .  S
O3           H26   0.966       .  S
C4           O21   1.272       .  A
C4           O13   1.280       .  A
C4         C1979   1.454   1_554  S
O5           C11   1.274       .  A
O5          Ni24   1.948       .  S
O6            C8   1.264       .  A
O6          Ni24   1.906       .  S
Ni7          O10   1.908       .  S
Ni7          O12   1.956       .  S
Ni7         O993   1.920       .  S
C8           O18   1.269       .  A
C8          C986   1.436       .  S
O9           C15   1.272       .  A
O9          Ni25   1.896       .  S
O10          C15   1.272       .  A
C11          C37   1.461       .  S
O12          C14   1.282       .  A
O13         Ni24   1.949       .  S
C14          O20   1.275       .  A
C14         C991   1.484   1_554  S
C15         C989   1.407       .  S
H16          O17   0.966       .  S
O17         Ni25   1.927       .  S
O17         Ni19   1.913       .  S
O17         Ni24   1.937       .  S
O18         Ni19   1.927       .  S
Ni19         O21   1.918       .  S
Ni19       O1015   1.884       .  S
O20         Ni25   1.947       .  S
C22          O23   1.264       .  A
C22          C48   1.466       .  S
O23       Ni1011   1.884   1_455  S
O27          C48   1.274       .  A
O27         Ni33   1.919       .  S
O28          C37   1.261       .  A
O28         Ni51   1.883       .  S
O29         Ni33   1.897       .  S
O29         Ni51   1.882       .  S
O29         Ni45   1.879       .  S
O29          H52   0.967       .  S
C30          O47   1.274       .  A
C30          O39   1.272       .  A
C30         C979   1.425       .  S
O31          C37   1.266       .  A
O31         Ni50   1.930       .  S
O32          C34   1.263       .  A
O32         Ni50   1.899       .  S
Ni33         O36   1.908       .  S
Ni33         O38   1.925       .  S
C34          O44   1.263       .  A
C34         C978   1.418       .  S
O35          C41   1.262       .  A
O35         Ni51   1.880       .  S
O36          C41   1.268       .  A
O38          C40   1.275       .  A
O39         Ni50   1.914       .  S
C40          O46   1.279       .  A
C40         C983   1.453       .  S
C41         C981   1.405   1_554  S
H42          O43   0.966       .  S
O43         Ni51   1.906       .  S
O43         Ni45   1.922       .  S
O43         Ni50   1.932       .  S
O44         Ni45   1.904       .  S
Ni45         O49   1.904       .  S
Ni45         O47   1.913       .  S
O46         Ni51   1.953       .  S
C48          O49   1.275       .  A
O53          C74   1.266       .  A
O53         Ni59   1.919       .  S
O54          C63   1.263       .  A
O54         Ni77   1.889       .  S
O55         Ni59   1.935       .  S
O55         Ni77   1.902       .  S
O55         Ni71   1.949       .  S
O55          H78   0.966       .  S
C56          O73   1.283       .  A
C56          O65   1.274       .  A
C56         C971   1.479       .  S
O57          C63   1.270       .  A
O57         Ni76   1.932       .  S
O58          C60   1.265       .  A
O58         Ni76   1.893       .  S
Ni59         O62   1.934       .  S
Ni59         O64   1.890       .  S
C60          O70   1.266       .  A
C60         C970   1.400       .  S
O61          C67   1.282       .  A
O61         Ni77   1.959       .  S
O62          C67   1.271       .  A
C63         C968   1.425       .  S
O64          C66   1.264       .  A
O65         Ni76   1.944       .  S
C66          O72   1.264       .  A
C66         C976   1.394       .  S
C67         C974   1.477       .  S
H68          O69   0.966       .  S
O69         Ni77   1.942       .  S
O69         Ni71   1.901       .  S
O69         Ni76   1.929       .  S
O70         Ni71   1.894       .  S
Ni71         O75   1.898       .  S
Ni71         O73   1.959       .  S
O72         Ni77   1.884       .  S
C74          O75   1.266       .  A
C74         C965   1.423       .  S
O79         C100   1.274   1_556  A
O79         Ni85   1.942       .  S
O80          C89   1.266       .  A
O80       Ni1095   1.896       .  S
O81         Ni85   1.915       .  S
O81        Ni103   1.891       .  S
O81         Ni97   1.903       .  S
O81        H1096   0.966   1_455  S
C82          O99   1.263       .  A
C82          O91   1.268       .  A
C82         C961   1.444       .  S
O83        C1081   1.270       .  A
O83        Ni102   1.922       .  S
O84        C1078   1.272       .  A
O84        Ni102   1.899       .  S
Ni85         O90   1.913       .  S
Ni85       O1080   1.939   1_455  S
C86        O1076   1.272       .  A
C86        O1088   1.273       .  A
C86         C964   1.409       .  S
O87          C93   1.276       .  A
O87       Ni1095   1.926       .  S
O88          C93   1.275       .  A
O88       Ni1077   1.939       .  S
C89        O1075   1.270       .  A
C89         C956   1.427       .  S
O90          C92   1.270       .  A
O91        Ni102   1.941       .  S
C92          O98   1.266       .  A
C92         C959   1.420       .  S
C93         C958   1.448       .  S
H94          O95   0.967       .  S
O95        Ni103   1.947       .  S
O95         Ni97   1.897       .  S
O95        Ni102   1.926       .  S
O96        C1078   1.273       .  A
O96         Ni97   1.922       .  S
Ni97        O101   1.872       .  S
Ni97         O99   1.911       .  S
O98        Ni103   1.909       .  S
C100        O101   1.258   1_554  A
C100        C966   1.421       .  S
Ni103      O1072   1.896   1_455  S
Ni103      O1079   1.926   1_455  S
H104       O1073   0.966       .  S
O105        C126   1.270       .  A
O105       Ni111   1.936       .  S
O106        C115   1.261       .  A
O106       Ni129   1.890       .  S
O107       Ni111   1.931       .  S
O107       Ni129   1.907       .  S
O107       Ni123   1.915       .  S
O107        H130   0.966       .  S
C108        O125   1.269       .  A
C108        O117   1.271       .  A
C108        C945   1.431       .  S
O109        C115   1.269       .  A
O109       Ni128   1.931       .  S
O110        C112   1.268       .  A
O110       Ni128   1.909       .  S
Ni111       O114   1.931       .  S
Ni111       O116   1.911       .  S
C112        O122   1.270       .  A
C112        C953   1.435       .  S
O113        C119   1.268       .  A
O113       Ni129   1.904       .  S
O114        C119   1.272       .  A
C115        C955   1.427       .  S
O116        C118   1.269       .  A
O117       Ni128   1.925       .  S
C118        O124   1.271       .  A
C118        C949   1.436       .  S
C119        C951   1.434       .  S
H120        O121   0.966       .  S
O121       Ni129   1.911       .  S
O121       Ni123   1.905       .  S
O121       Ni128   1.930       .  S
O122       Ni123   1.928       .  S
Ni123       O127   1.892       .  S
Ni123       O125   1.906       .  S
O124       Ni129   1.929       .  S
C126        O127   1.262       .  A
C126        C947   1.431       .  S
O131        C152   1.271       .  A
O131       Ni137   1.927       .  S
O132        C141   1.261       .  A
O132       Ni155   1.880       .  S
O133       Ni137   1.925       .  S
O133       Ni155   1.899       .  S
O133       Ni149   1.955       .  S
O133        H156   0.968       .  S
C134        O151   1.279       .  A
C134        O143   1.276       .  A
C134        C940   1.457       .  S
O135        C141   1.274       .  A
O135       Ni154   1.942       .  S
O136        C138   1.269       .  A
O136       Ni154   1.906       .  S
Ni137       O140   1.949       .  S
Ni137       O142   1.893       .  S
C138        O148   1.264       .  A
C138        C937   1.410       .  S
O139        C145   1.266       .  A
O139       Ni155   1.919       .  S
O140        C145   1.270       .  A
C141        C967   1.425       .  S
O142        C144   1.272       .  A
O143       Ni154   1.943       .  S
C144        O150   1.274       .  A
C144        C942   1.399       .  S
C145        C944   1.455       .  S
H146        O147   0.966       .  S
O147       Ni155   1.909       .  S
O147       Ni149   1.893       .  S
O147       Ni154   1.914       .  S
O148       Ni149   1.901       .  S
Ni149       O153   1.899       .  S
Ni149       O151   1.936       .  S
O150       Ni155   1.917       .  S
C152        O153   1.267       .  A
C152        C948   1.431       .  S
O157        C178   1.274       .  A
O157       Ni163   1.920       .  S
O158        C167   1.261       .  A
O158       Ni181   1.882       .  S
O159       Ni163   1.900       .  S
O159       Ni181   1.882       .  S
O159       Ni175   1.880       .  S
O159        H182   0.967       .  S
C160        O177   1.274       .  A
C160        O169   1.273       .  A
C160        C946   1.431       .  S
O161        C167   1.267       .  A
O161       Ni180   1.937       .  S
O162        C164   1.262       .  A
O162       Ni180   1.894       .  S
Ni163       O166   1.906       .  S
Ni163       O168   1.928       .  S
C164        O174   1.262       .  A
C164        C938   1.413       .  S
O165        C171   1.262       .  A
O165       Ni181   1.885       .  S
O166        C171   1.267       .  A
C167        C323   1.465       .  S
O168        C170   1.276       .  A
O169       Ni180   1.920       .  S
C170        O176   1.278       .  A
C170        C935   1.454       .  S
C171        C934   1.407       .  S
H172        O173   0.966       .  S
O173       Ni181   1.910       .  S
O173       Ni175   1.929       .  S
O173       Ni180   1.937       .  S
O174       Ni175   1.901       .  S
Ni175       O179   1.909       .  S
Ni175       O177   1.914       .  S
O176       Ni181   1.952       .  S
C178        O179   1.276       .  A
C178        C334   1.472       .  S
O183        C204   1.268       .  A
O183       Ni189   1.932       .  S
O184        C193   1.269       .  A
O184      Ni1199   1.894       .  S
O185       Ni189   1.934       .  S
O185       Ni207   1.919       .  S
O185       Ni201   1.917       .  S
O185        H208   0.966       .  S
C186        O203   1.267       .  A
C186        O195   1.270       .  A
C186        C930   1.403       .  S
O187        C193   1.274       .  A
O187      Ni1198   1.915       .  S
O188        C190   1.275       .  A
O188       Ni206   1.928       .  S
Ni189       O192   1.925       .  S
Ni189       O194   1.903       .  S
C190        O200   1.276       .  A
C190        C931   1.455       .  S
O191        C197   1.272       .  A
O191       Ni207   1.912       .  S
O192        C197   1.273       .  A
C193        C349   1.464       .  S
O194        C196   1.264       .  A
O195       Ni206   1.911       .  S
C196        O202   1.263       .  A
C196        C960   1.423       .  S
C197       C1944   1.434       .  S
H198        O199   0.967       .  S
O199       Ni207   1.885       .  S
O199       Ni201   1.871       .  S
O199       Ni206   1.899       .  S
O200       Ni201   1.947       .  S
Ni201       O205   1.886       .  S
Ni201       O203   1.885       .  S
O202       Ni207   1.907       .  S
C204        O205   1.263       .  A
C204        C360   1.462       .  S
Ni206      O1179   1.915   1_455  S
Ni207      O1176   1.894   1_455  S
O209        C230   1.265       .  A
O209       Ni215   1.893       .  S
O210        C219   1.261       .  A
O210       Ni233   1.884       .  S
O211       Ni215   1.908       .  S
O211       Ni233   1.871       .  S
O211       Ni227   1.893       .  S
O211        H234   0.966       .  S
C212        O229   1.268       .  A
C212        O221   1.273       .  A
C212        C928   1.440       .  S
O213        C219   1.268       .  A
O213       Ni232   1.937       .  S
O214        C216   1.259       .  A
O214       Ni232   1.882       .  S
Ni215       O218   1.907       .  S
Ni215       O220   1.912       .  S
C216        O226   1.265       .  A
C216        C925   1.412       .  S
O217        C223   1.267       .  A
O217       Ni233   1.889       .  S
O218        C223   1.271       .  A
C219        C245   1.468       .  S
O220        C222   1.268       .  A
O221       Ni232   1.934   1_556  S
C222        O228   1.275       .  A
C222        C962   1.445   1_554  S
C223        C969   1.406       .  S
H224        O225   0.966   1_556  S
O225       Ni233   1.927       .  S
O225       Ni227   1.932       .  S
O225       Ni232   1.945       .  S
O226       Ni227   1.910       .  S
Ni227       O231   1.899       .  S
Ni227       O229   1.906   1_554  S
O228       Ni233   1.942       .  S
C230        O231   1.269       .  A
C230        C256   1.459       .  S
O235        C256   1.278       .  A
O235       Ni241   1.910       .  S
O236        C245   1.256       .  A
O236      Ni1251   1.869   1_455  S
O237       Ni241   1.906       .  S
O237       Ni259   1.864       .  S
O237       Ni253   1.909       .  S
O237        H260   0.966       .  S
C238        O255   1.271       .  A
C238        O247   1.283       .  A
C238        C924   1.469       .  S
O239        C245   1.277       .  A
O239      Ni1250   1.960   1_455  S
O240        C242   1.262       .  A
O240       Ni258   1.899       .  S
Ni241       O244   1.905       .  S
Ni241       O246   1.952       .  S
C242        O252   1.267       .  A
C242        C921   1.430       .  S
O243       C1241   1.274       .  A
O243      Ni1251   1.905       .  S
O244        C249   1.271       .  A
O246        C248   1.280       .  A
O247       Ni258   1.967       .  S
C248        O254   1.274       .  A
C248        C972   1.479       .  S
C249       O1235   1.274       .  A
C249        C963   1.411   1_554  S
H250        O251   0.966       .  S
O251       Ni259   1.933       .  S
O251       Ni253   1.914       .  S
O251       Ni258   1.942       .  S
O252       Ni253   1.923       .  S
Ni253       O257   1.875       .  S
Ni253       O255   1.919       .  S
O254       Ni259   1.944       .  S
C256        O257   1.260       .  A
Ni258      O1231   1.960       .  S
Ni259      O1228   1.869       .  S
Ni259      O1235   1.905       .  S
O261        C282   1.272       .  A
O261       Ni267   1.941       .  S
O262        C271   1.261       .  A
O262       Ni285   1.875       .  S
O263       Ni267   1.939       .  S
O263       Ni285   1.912       .  S
O263       Ni279   1.922       .  S
O263        H286   0.966       .  S
C264        O281   1.272       .  A
C264        O273   1.271       .  A
C264        C941   1.403       .  S
O265        C271   1.277       .  A
O265       Ni284   1.912       .  S
O266        C268   1.279       .  A
O266       Ni284   1.948       .  S
Ni267       O270   1.944       .  S
Ni267       O272   1.911       .  S
C268        O278   1.276       .  A
C268        C973   1.478       .  S
O269        C275   1.269       .  A
O269       Ni285   1.908       .  S
O270        C275   1.277       .  A
C271        C297   1.457       .  S
O272        C274   1.265       .  A
O273       Ni284   1.903       .  S
C274        O280   1.268       .  A
C274        C917   1.442       .  S
C275        C919   1.446       .  S
H276        O277   0.966       .  S
O277       Ni285   1.898       .  S
O277       Ni279   1.866       .  S
O277       Ni284   1.903       .  S
O278       Ni279   1.950       .  S
Ni279       O283   1.873       .  S
Ni279       O281   1.894       .  S
O280       Ni285   1.928       .  S
C282        O283   1.259       .  A
C282        C308   1.457       .  S
O287        C308   1.269       .  A
O287       Ni293   1.937       .  S
O288        C297   1.269       .  A
O288      Ni1303   1.893       .  S
O289       Ni293   1.935       .  S
O289       Ni311   1.917       .  S
O289       Ni305   1.906       .  S
O289        H312   0.966       .  S
C290        O307   1.264       .  A
C290        O299   1.272       .  A
C290        C975   1.401       .  S
O291        C297   1.269       .  A
O291      Ni1302   1.903       .  S
O292        C294   1.271       .  A
O292       Ni310   1.924       .  S
Ni293       O296   1.925       .  S
Ni293       O298   1.906       .  S
C294        O304   1.274       .  A
C294        C943   1.456       .  S
O295        C301   1.271       .  A
O295       Ni311   1.906       .  S
O296        C301   1.274       .  A
O298        C300   1.264       .  A
O299       Ni310   1.908       .  S
C300        O306   1.266       .  A
C300        C914   1.433       .  S
C301       C1907   1.429       .  S
H302        O303   0.966       .  S
O303       Ni311   1.887       .  S
O303       Ni305   1.873       .  S
O303       Ni310   1.905       .  S
O304       Ni305   1.945       .  S
Ni305       O309   1.873       .  S
Ni305       O307   1.878       .  S
O306       Ni311   1.920       .  S
C308        O309   1.257       .  A
Ni310      O1283   1.903   1_455  S
Ni311      O1280   1.893   1_455  S
O313        C334   1.283       .  A
O313       Ni319   1.920       .  S
O314        C323   1.256       .  A
O314      Ni1329   1.869   1_455  S
O315       Ni319   1.904       .  S
O315       Ni337   1.864       .  S
O315       Ni331   1.902       .  S
O315        H338   0.967       .  S
C316        O333   1.273       .  A
C316        O325   1.281       .  A
C316        C939   1.457       .  S
O317        C323   1.275       .  A
O317      Ni1328   1.956   1_455  S
O318        C320   1.263       .  A
O318       Ni336   1.903       .  S
Ni319       O322   1.908       .  S
Ni319       O324   1.964       .  S
C320        O330   1.269       .  A
C320        C954   1.436       .  S
O321        C327   1.272       .  A
O321       Ni337   1.896       .  S
O322        C327   1.272       .  A
O324        C326   1.284       .  A
O325       Ni336   1.952       .  S
C326        O332   1.275       .  A
C326        C911   1.492       .  S
C327        C909   1.408       .  S
H328        O329   0.966       .  S
O329       Ni337   1.927       .  S
O329       Ni331   1.917       .  S
O329       Ni336   1.938       .  S
O330       Ni331   1.929       .  S
Ni331       O335   1.889       .  S
Ni331       O333   1.919       .  S
O332       Ni337   1.950       .  S
C334        O335   1.266       .  A
Ni336      O1309   1.956       .  S
Ni337      O1306   1.869       .  S
O339        C360   1.274       .  A
O339       Ni345   1.947       .  S
O340        C349   1.265       .  A
O340       Ni363   1.886       .  S
O341       Ni345   1.933       .  S
O341       Ni363   1.913       .  S
O341       Ni357   1.924       .  S
O341        H364   0.966       .  S
C342        O359   1.272       .  A
C342        O351   1.273       .  A
C342        C905   1.410       .  S
O343        C349   1.278       .  A
O343       Ni362   1.913       .  S
O344        C346   1.279       .  A
O344       Ni362   1.950       .  S
Ni345       O348   1.943       .  S
Ni345       O350   1.907       .  S
C346        O356   1.274       .  A
C346        C907   1.477       .  S
O347        C353   1.272       .  A
O347       Ni363   1.914       .  S
O348        C353   1.279       .  A
O350        C352   1.264       .  A
O351       Ni362   1.911       .  S
C352        O358   1.269       .  A
C352        C950   1.436       .  S
C353        C957   1.448       .  S
H354        O355   0.967       .  S
O355       Ni363   1.900       .  S
O355       Ni357   1.866       .  S
O355       Ni362   1.905       .  S
O356       Ni357   1.946       .  S
Ni357       O361   1.874       .  S
Ni357       O359   1.895       .  S
O358       Ni363   1.926       .  S
C360        O361   1.258       .  A
O365        C386   1.278       .  A
O365      Ni1363   1.960   1_455  S
O366        C375   1.265       .  A
O366       Ni389   1.905       .  S
O367       Ni371   1.930       .  S
O367       Ni389   1.916       .  S
O367      Ni1375   1.917       .  S
O367        H390   0.966       .  S
C368        O385   1.266       .  A
C368        O377   1.267       .  A
C368        C980   1.425       .  S
O369        C375   1.269       .  A
O369      Ni1380   1.927       .  S
O370        C372   1.274       .  A
O370      Ni1380   1.915       .  S
Ni371       O374   1.954       .  S
Ni371      O1357   1.960       .  S
Ni371      O1368   1.919       .  S
C372        O382   1.275       .  A
C372        C985   1.435       .  S
O373        C379   1.268       .  A
O373       Ni389   1.907       .  S
O374        C379   1.277       .  A
C375        C903   1.439       .  S
O376        C378   1.272       .  A
O376      Ni1363   1.919   1_455  S
O377       Ni388   1.922       .  S
C378        O384   1.267   1_455  A
C378        C913   1.431       .  S
C379        C920   1.447       .  S
H380        O381   0.965       .  S
O381       Ni383   1.908       .  S
O381       Ni388   1.927       .  S
O381      Ni1381   1.917   1_455  S
O382      Ni1375   1.937       .  S
Ni383       O387   1.910       .  S
Ni383       O385   1.905       .  S
Ni383      O1374   1.937       .  S
Ni383      O1359   1.917   1_455  S
O384      Ni1381   1.918       .  S
C386        O387   1.267       .  A
C386        C901   1.460       .  S
Ni388      O1361   1.927   1_455  S
Ni388      O1362   1.915   1_455  S
Ni389      O1376   1.918       .  S
Ni389      O1373   1.917       .  S
O391        C412   1.278       .  A
O391       Ni397   1.958   1_554  S
O392        C401   1.271       .  A
O392       Ni415   1.914       .  S
O393       Ni397   1.932       .  S
O393       Ni415   1.925       .  S
O393       Ni409   1.960       .  S
O393        H416   0.968       .  S
C394        O411   1.277       .  A
C394        O403   1.274       .  A
C394        C988   1.454       .  S
O395        C401   1.272       .  A
O395       Ni414   1.936       .  S
O396        C398   1.270       .  A
O396       Ni414   1.911       .  S
Ni397       O400   1.966       .  S
Ni397       O402   1.896       .  S
C398        O408   1.265       .  A
C398        C977   1.414   1_556  S
O399        C405   1.274       .  A
O399       Ni415   1.937       .  S
O400        C405   1.277       .  A
C401        C900   1.445       .  S
O402        C404   1.271       .  A
O403       Ni414   1.940       .  S
C404        O410   1.270       .  A
C404        C929   1.398       .  S
C405        C908   1.478       .  S
H406        O407   0.966       .  S
O407       Ni415   1.915       .  S
O407       Ni409   1.894       .  S
O407       Ni414   1.918       .  S
O408       Ni409   1.903       .  S
Ni409       O413   1.907   1_556  S
Ni409       O411   1.932       .  S
O410       Ni415   1.903       .  S
C412        O413   1.265       .  A
C412        C902   1.460       .  S
O417        C438   1.273       .  A
O417       Ni423   1.941       .  S
O418        C427   1.265       .  A
O418       Ni441   1.900       .  S
O419       Ni423   1.931       .  S
O419       Ni441   1.917       .  S
O419       Ni435   1.946       .  S
O419        H442   0.967       .  S
C420        O437   1.274       .  A
C420        O429   1.273       .  A
C420        C895   1.446       .  S
O421        C427   1.275       .  A
O421       Ni440   1.944       .  S
O422        C424   1.274       .  A
O422       Ni440   1.921       .  S
Ni423       O426   1.948       .  S
Ni423       O428   1.905       .  S
C424        O434   1.267       .  A
C424        C897   1.425       .  S
O425        C431   1.269       .  A
O425       Ni441   1.921       .  S
O426        C431   1.272       .  A
C427        C899   1.444       .  S
O428        C430   1.272       .  A
O429       Ni440   1.937       .  S
C430        O436   1.267       .  A
C430        C906   1.407       .  S
C431        C932   1.454       .  S
H432        O433   0.966       .  S
O433       Ni441   1.913       .  S
O433       Ni435   1.898       .  S
O433       Ni440   1.919       .  S
O434       Ni435   1.911       .  S
Ni435       O439   1.908       .  S
Ni435       O437   1.924       .  S
O436       Ni441   1.905       .  S
C438        O439   1.267       .  A
C438        C894   1.449       .  S
O443        C464   1.274       .  A
O443       Ni449   1.948       .  S
O444        C453   1.264       .  A
O444       Ni467   1.904       .  S
O445       Ni449   1.933       .  S
O445       Ni467   1.916       .  S
O445       Ni461   1.908       .  S
O445        H468   0.967       .  S
C446        O463   1.265       .  A
C446        O455   1.267       .  A
C446        C891   1.415       .  S
O447        C453   1.269       .  A
O447       Ni466   1.930       .  S
O448        C450   1.273       .  A
O448       Ni466   1.919       .  S
Ni449       O452   1.934       .  S
Ni449       O454   1.924       .  S
C450        O460   1.273       .  A
C450        C889   1.440       .  S
O451        C457   1.267       .  A
O451       Ni467   1.898       .  S
O452        C457   1.273       .  A
C453        C904   1.439       .  S
O454        C456   1.273       .  A
O455       Ni466   1.918       .  S
C456        O462   1.268       .  A
C456        C918   1.440       .  S
C457        C916   1.429       .  S
H458        O459   0.965       .  S
O459       Ni467   1.908       .  S
O459       Ni461   1.909       .  S
O459       Ni466   1.930       .  S
O460       Ni461   1.935       .  S
Ni461       O465   1.904       .  S
Ni461       O463   1.894       .  S
O462       Ni467   1.923       .  S
C464        O465   1.264       .  A
C464        C893   1.449       .  S
O469        C490   1.285       .  A
O469       Ni475   1.931       .  S
O470        C479   1.256       .  A
O470      Ni1485   1.868   1_455  S
O471       Ni475   1.901       .  S
O471       Ni493   1.864       .  S
O471       Ni487   1.896       .  S
O471        H494   0.966       .  S
C472        O489   1.273       .  A
C472        O481   1.277       .  A
C472        C896   1.446       .  S
O473        C479   1.272       .  A
O473      Ni1484   1.941   1_455  S
O474        C476   1.265       .  A
O474       Ni492   1.908       .  S
Ni475       O478   1.908       .  S
Ni475       O480   1.968       .  S
C476        O486   1.272       .  A
C476        C890   1.442       .  S
O477       C1475   1.271       .  A
O477      Ni1485   1.890       .  S
O478        C483   1.272       .  A
C479        C505   1.456       .  S
O480        C482   1.286       .  A
O481       Ni492   1.937       .  S
C482        O488   1.275       .  A
C482        C887   1.495       .  S
C483       O1469   1.271       .  A
C483        C886   1.402       .  S
H484        O485   0.966       .  S
O485       Ni493   1.924       .  S
O485       Ni487   1.917       .  S
O485       Ni492   1.937       .  S
O486       Ni487   1.936       .  S
Ni487       O491   1.893       .  S
Ni487       O489   1.918       .  S
O488       Ni493   1.950       .  S
C490        O491   1.269       .  A
C490        C516   1.480       .  S
Ni492      O1465   1.941       .  S
Ni493      O1462   1.868       .  S
Ni493      O1469   1.890       .  S
O495        C516   1.280       .  A
O495       Ni501   1.939       .  S
O496        C505   1.260       .  A
O496       Ni519   1.877       .  S
O497       Ni501   1.902       .  S
O497       Ni519   1.904       .  S
O497       Ni513   1.877       .  S
O497        H520   0.967       .  S
C498        O515   1.277       .  A
C498        O507   1.271       .  A
C498        C892   1.417       .  S
O499        C505   1.265       .  A
O499       Ni518   1.928       .  S
O500        C502   1.264       .  A
O500       Ni518   1.907       .  S
Ni501       O504   1.895       .  S
Ni501       O506   1.940       .  S
C502        O512   1.264       .  A
C502        C898   1.430       .  S
O503        C509   1.256       .  A
O503       Ni519   1.883       .  S
O504        C509   1.262       .  A
O506        C508   1.283       .  A
O507       Ni518   1.905       .  S
C508        O514   1.282       .  A
C508        C884   1.463       .  S
C509        C882   1.403       .  S
H510        O511   0.966       .  S
O511       Ni519   1.890       .  S
O511       Ni513   1.917       .  S
O511       Ni518   1.927       .  S
O512       Ni513   1.914       .  S
Ni513       O517   1.911       .  S
Ni513       O515   1.915       .  S
O514       Ni519   1.958       .  S
C516        O517   1.278       .  A
O521        C542   1.276       .  A
O521       Ni527   1.948       .  S
O522        C531   1.266       .  A
O522       Ni545   1.898       .  S
O523       Ni527   1.928       .  S
O523       Ni545   1.909       .  S
O523       Ni539   1.957       .  S
O523        H546   0.967       .  S
C524        O541   1.278       .  A
C524        O533   1.278       .  A
C524        C923   1.469       .  S
O525        C531   1.277       .  A
O525       Ni544   1.952       .  S
O526        C528   1.270       .  A
O526       Ni544   1.907       .  S
Ni527       O530   1.963       .  S
Ni527       O532   1.897       .  S
C528        O538   1.264       .  A
C528        C926   1.408       .  S
O529        C535   1.271       .  A
O529       Ni545   1.933       .  S
O530        C535   1.274       .  A
C531        C875   1.444       .  S
O532        C534   1.273       .  A
O533       Ni544   1.956       .  S
C534        O540   1.272       .  A
C534        C879   1.399       .  S
C535        C878   1.473       .  S
H536        O537   0.966       .  S
O537       Ni545   1.924       .  S
O537       Ni539   1.901       .  S
O537       Ni544   1.920       .  S
O538       Ni539   1.898       .  S
Ni539       O543   1.906       .  S
Ni539       O541   1.939       .  S
O540       Ni545   1.909       .  S
C542        O543   1.267       .  A
C542        C874   1.451       .  S
O547        C568   1.276       .  A
O547       Ni553   1.950       .  S
O548        C557   1.268       .  A
O548      Ni1563   1.909       .  S
O549       Ni553   1.917       .  S
O549       Ni571   1.899       .  S
O549       Ni565   1.912       .  S
O549       H1564   0.966   1_455  S
C550        O567   1.266       .  A
C550        O559   1.272       .  A
C550        C936   1.453       .  S
O551        C557   1.274       .  A
O551      Ni1562   1.940       .  S
O552        C554   1.273       .  A
O552      Ni1562   1.902       .  S
Ni553       O558   1.918       .  S
Ni553      O1548   1.943   1_455  S
C554       O1556   1.269       .  A
C554        C910   1.404       .  S
O555        C561   1.275       .  A
O555      Ni1563   1.926       .  S
O556        C561   1.275       .  A
O556      Ni1545   1.943       .  S
C557        C866   1.447       .  S
O558        C560   1.274       .  A
O559       Ni570   1.955       .  S
C560        O566   1.266       .  A
C560        C871   1.419       .  S
C561        C870   1.450       .  S
H562        O563   0.966       .  S
O563       Ni571   1.947       .  S
O563       Ni565   1.905       .  S
O563       Ni570   1.927       .  S
O564       C1546   1.269       .  A
O564       Ni565   1.911       .  S
Ni565       O569   1.886       .  S
Ni565       O567   1.915       .  S
O566       Ni571   1.906       .  S
C568        O569   1.261       .  A
C568        C867   1.438       .  S
Ni570      O1543   1.940       .  S
Ni570      O1544   1.902       .  S
Ni571      O1540   1.909   1_455  S
Ni571      O1547   1.926   1_455  S
H572       O1541   0.966       .  S
O573        C594   1.271       .  A
O573       Ni579   1.928       .  S
O574        C583   1.265       .  A
O574       Ni597   1.897       .  S
O575       Ni579   1.933       .  S
O575       Ni597   1.904       .  S
O575       Ni591   1.953       .  S
O575        H598   0.966       .  S
C576        O593   1.282       .  A
C576        O585   1.277       .  A
C576        C912   1.493   1_455  S
O577        C583   1.275       .  A
O577       Ni596   1.949       .  S
O578        C580   1.269       .  A
O578       Ni596   1.896       .  S
Ni579       O582   1.953       .  S
Ni579       O584   1.894       .  S
C580        O590   1.269       .  A
C580        C933   1.397       .  S
O581        C587   1.280       .  A
O581       Ni597   1.958       .  S
O582        C587   1.273       .  A
C583        C876   1.444       .  S
O584        C586   1.267       .  A
O585       Ni596   1.964       .  S
C586        O592   1.267       .  A
C586        C862   1.395       .  S
C587        C864   1.485       .  S
H588        O589   0.967       .  S
O589       Ni597   1.954       .  S
O589       Ni591   1.910       .  S
O589       Ni596   1.934       .  S
O590       Ni591   1.896       .  S
Ni591       O595   1.910       .  S
Ni591       O593   1.961       .  S
O592       Ni597   1.892       .  S
C594        O595   1.270       .  A
C594        C868   1.439       .  S
O599        C620   1.274   1_556  A
O599       Ni605   1.946       .  S
O600        C609   1.266       .  A
O600       Ni623   1.906       .  S
O601       Ni605   1.927       .  S
O601       Ni623   1.911       .  S
O601       Ni617   1.920       .  S
O601        H624   0.966       .  S
C602        O619   1.267       .  A
C602        O611   1.271       .  A
C602        C927   1.440       .  S
O603        C609   1.273       .  A
O603       Ni622   1.941       .  S
O604        C606   1.273       .  A
O604       Ni622   1.912       .  S
Ni605       O608   1.945       .  S
Ni605       O610   1.912       .  S
C606        O616   1.274       .  A
C606        C922   1.429       .  S
O607        C613   1.267       .  A
O607       Ni623   1.908       .  S
O608        C613   1.273       .  A
C609        C865   1.447       .  S
O610        C612   1.272       .  A
O611       Ni622   1.940       .  S
C612        O618   1.271       .  A
C612        C858   1.426       .  S
C613        C859   1.442       .  S
H614        O615   0.966       .  S
O615       Ni623   1.923       .  S
O615       Ni617   1.911       .  S
O615       Ni622   1.927       .  S
O616       Ni617   1.931       .  S
Ni617       O621   1.910       .  S
Ni617       O619   1.909       .  S
O618       Ni623   1.925       .  S
C620        O621   1.267   1_554  A
C620        C873   1.451       .  S
O625        C646   1.266       .  A
O625       Ni631   1.911   1_554  S
O626        C635   1.254       .  A
O626       Ni649   1.870   1_565  S
O627       Ni631   1.933       .  S
O627       Ni649   1.896       .  S
O627       Ni643   1.953   1_545  S
O627        H650   0.966   1_545  S
C628        O645   1.285       .  A
C628        O637   1.279       .  A
C628        C992   1.485       .  S
O629        C635   1.273       .  A
O629       Ni648   1.948       .  S
O630        C632   1.263       .  A
O630       Ni648   1.894       .  S
Ni631       O634   1.935       .  S
Ni631       O636   1.892       .  S
C632        O642   1.262       .  A
C632        C982   1.395       .  S
O633        C639   1.273       .  A
O633       Ni649   1.939       .  S
O634        C639   1.268       .  A
C635        C850   1.423       .  S
O636        C638   1.266       .  A
O637       Ni648   1.955       .  S
C638        O644   1.267       .  A
C638        C855   1.398       .  S
C639        C853   1.464       .  S
H640        O641   0.967   1_545  S
O641       Ni649   1.928   1_565  S
O641       Ni643   1.899       .  S
O641       Ni648   1.936       .  S
O642       Ni643   1.882       .  S
Ni643       O647   1.896   1_556  S
Ni643       O645   1.960       .  S
O644       Ni649   1.895       .  S
C646        O647   1.267   1_545  A
C646        C851   1.418       .  S
O651        C672   1.270       .  A
O651       Ni657   1.927       .  S
O652        C661   1.262       .  A
O652       Ni675   1.887   1_565  S
O653       Ni657   1.919       .  S
O653       Ni675   1.891       .  S
O653       Ni669   1.916   1_545  S
O653        H676   0.966       .  S
C654        O671   1.266       .  A
C654        O663   1.272       .  A
C654        C984   1.452       .  S
O655        C661   1.273       .  A
O655       Ni674   1.937       .  S
O656        C658   1.270       .  A
O656       Ni674   1.897       .  S
Ni657       O660   1.933       .  S
Ni657       O662   1.903       .  S
C658        O668   1.268       .  A
C658        C990   1.405       .  S
O659        C665   1.271       .  A
O659       Ni675   1.919       .  S
O660        C665   1.270       .  A
C661        C848   1.432       .  S
O662        C664   1.270       .  A
O663       Ni674   1.952       .  S
C664        O670   1.270       .  A
C664        C844   1.416       .  S
C665        C846   1.441       .  S
H666        O667   0.968       .  S
O667       Ni675   1.939   1_565  S
O667       Ni669   1.903       .  S
O667       Ni674   1.930       .  S
O668       Ni669   1.914       .  S
Ni669       O673   1.877       .  S
Ni669       O671   1.913       .  S
O670       Ni675   1.919       .  S
C672        O673   1.259   1_545  A
C672        C852   1.417       .  S
O677        C698   1.267       .  A
O677       Ni683   1.916       .  S
O678        C687   1.260   1_545  A
O678       Ni701   1.881       .  S
O679       Ni683   1.934       .  S
O679       Ni701   1.900       .  S
O679       Ni695   1.963   1_545  S
O679        H702   0.966   1_545  S
C680        O697   1.286       .  A
C680        O689   1.278       .  A
C680        C888   1.496       .  S
O681        C687   1.270       .  A
O681       Ni700   1.936       .  S
O682        C684   1.261       .  A
O682       Ni700   1.886       .  S
Ni683       O686   1.948       .  S
Ni683       O688   1.879       .  S
C684        O694   1.266       .  A
C684        C881   1.392       .  S
O685        C691   1.277       .  A
O685       Ni701   1.952       .  S
O686        C691   1.271       .  A
C687        C849   1.425       .  S
O688        C690   1.263       .  A
O689       Ni700   1.958       .  S
C690        O696   1.271       .  A
C690        C840   1.390       .  S
C691        C842   1.481       .  S
H692        O693   0.966   1_545  S
O693       Ni701   1.941   1_565  S
O693       Ni695   1.899       .  S
O693       Ni700   1.936       .  S
O694       Ni695   1.885       .  S
Ni695       O699   1.900       .  S
Ni695       O697   1.970       .  S
O696       Ni701   1.899       .  S
C698        O699   1.268   1_545  A
C698        C838   1.425       .  S
O703        C724   1.274       .  A
O703       Ni709   1.944       .  S
O704        C713   1.265       .  A
O704       Ni727   1.892   1_565  S
O705       Ni709   1.922       .  S
O705       Ni721   1.922   1_545  S
O705      Ni1719   1.894   1_455  S
O705       H1720   0.966   1_455  S
C706        O723   1.268       .  A
C706        O715   1.273       .  A
C706        C883   1.464       .  S
O707        C713   1.273       .  A
O707      Ni1718   1.934       .  S
O708        C710   1.268       .  A
O708      Ni1718   1.893       .  S
Ni709       O714   1.908       .  S
Ni709      O1704   1.945   1_455  S
C710       O1712   1.267       .  A
C710        C885   1.400       .  S
O711        C717   1.275       .  A
O711       Ni727   1.932       .  S
O712        C717   1.274       .  A
O712      Ni1701   1.945       .  S
C713        C847   1.432       .  S
O714        C716   1.271       .  A
O715       Ni726   1.958       .  S
C716        O722   1.270       .  A
C716        C836   1.420       .  S
C717        C833   1.459       .  S
H718        O719   0.966       .  S
O719       Ni721   1.901       .  S
O719       Ni726   1.933       .  S
O719      Ni1719   1.946   1_465  S
O720       C1702   1.267       .  A
O720       Ni721   1.908       .  S
Ni721       O725   1.870   1_565  S
Ni721       O723   1.923       .  S
O722      Ni1719   1.917   1_455  S
C724        O725   1.257       .  A
C724        C837   1.424       .  S
Ni726      O1699   1.934   1_455  S
Ni726      O1700   1.893       .  S
Ni727      O1714   1.917       .  S
Ni727      O1697   1.894       .  S
Ni727      O1711   1.946   1_545  S
H728       O1697   0.966       .  S
O729        C750   1.271       .  A
O729       Ni735   1.952       .  S
O730        C739   1.277       .  A
O730      Ni1745   1.909       .  S
O731       Ni735   1.934       .  S
O731       Ni753   1.925       .  S
O731       Ni747   1.908       .  S
O731        H754   0.966       .  S
C732        O749   1.262       .  A
C732        O741   1.266       .  A
C732        C861   1.405       .  S
O733        C739   1.281       .  A
O733      Ni1744   1.935       .  S
O734        C736   1.283       .  A
O734       Ni752   1.945       .  S
Ni735       O738   1.932       .  S
Ni735       O740   1.898       .  S
C736        O746   1.280       .  A
C736        C877   1.472       .  S
O737       C1735   1.277       .  A
O737      Ni1745   1.924       .  S
O738        C743   1.278       .  A
C739        C791   1.481       .  S
O740        C742   1.262       .  A
O741       Ni752   1.903       .  S
C742        O748   1.265       .  A
C742        C835   1.423       .  S
C743       O1729   1.277       .  A
C743       C1837   1.442   1_455  S
H744        O745   0.967       .  S
O745       Ni753   1.880       .  S
O745       Ni747   1.885       .  S
O745       Ni752   1.901       .  S
O746       Ni747   1.958       .  S
Ni747       O751   1.878       .  S
Ni747       O749   1.885       .  S
O748       Ni753   1.916       .  S
C750        O751   1.259       .  A
C750        C802   1.472       .  S
Ni752      O1725   1.935   1_455  S
Ni753      O1722   1.909   1_455  S
Ni753      O1729   1.924       .  S
O755        C776   1.272       .  A
O755       Ni761   1.952       .  S
O756        C765   1.267       .  A
O756       Ni779   1.893       .  S
O757       Ni761   1.946       .  S
O757       Ni779   1.926       .  S
O757       Ni773   1.925       .  S
O757        H780   0.966       .  S
C758        O775   1.269       .  A
C758        O767   1.272       .  A
C758        C856   1.405       .  S
O759        C765   1.277       .  A
O759       Ni778   1.910       .  S
O760        C762   1.280       .  A
O760       Ni778   1.953       .  S
Ni761       O764   1.947       .  S
Ni761       O766   1.896       .  S
C762        O772   1.275       .  A
C762        C841   1.481       .  S
O763        C769   1.271       .  A
O763       Ni779   1.911       .  S
O764        C769   1.278       .  A
C765        C817   1.472       .  S
O766        C768   1.262       .  A
O767       Ni778   1.904       .  S
C768        O774   1.267       .  A
C768        C857   1.428       .  S
C769        C869   1.450       .  S
H770        O771   0.966       .  S
O771       Ni779   1.896       .  S
O771       Ni773   1.865       .  S
O771       Ni778   1.905       .  S
O772       Ni773   1.949       .  S
Ni773       O777   1.870       .  S
Ni773       O775   1.891       .  S
O774       Ni779   1.923       .  S
C776        O777   1.256       .  A
C776        C828   1.466       .  S
O781        C802   1.273       .  A
O781       Ni787   1.952       .  S
O782        C791   1.269       .  A
O782       Ni805   1.898       .  S
O783       Ni787   1.947       .  S
O783       Ni805   1.931       .  S
O783       Ni799   1.934       .  S
O783        H806   0.966       .  S
C784        O801   1.270       .  A
C784        O793   1.272       .  A
C784        C880   1.404       .  S
O785        C791   1.283       .  A
O785       Ni804   1.926       .  S
O786        C788   1.284       .  A
O786       Ni804   1.959       .  S
Ni787       O790   1.950       .  S
Ni787       O792   1.889       .  S
C788        O798   1.275       .  A
C788        C863   1.484       .  S
O789        C795   1.271       .  A
O789       Ni805   1.919       .  S
O790        C795   1.279       .  A
O792        C794   1.261       .  A
O793       Ni804   1.909       .  S
C794        O800   1.267       .  A
C794        C843   1.418       .  S
C795        C834   1.458       .  S
H796        O797   0.967       .  S
O797       Ni805   1.892       .  S
O797       Ni799   1.863       .  S
O797       Ni804   1.901       .  S
O798       Ni799   1.948       .  S
Ni799       O803   1.877       .  S
Ni799       O801   1.890       .  S
O800       Ni805   1.917       .  S
C802        O803   1.258       .  A
O807        C828   1.269       .  A
O807       Ni813   1.945       .  S
O808        C817   1.270       .  A
O808      Ni1823   1.901       .  S
O809       Ni813   1.948       .  S
O809       Ni831   1.934       .  S
O809       Ni825   1.918       .  S
O809        H832   0.966       .  S
C810        O827   1.264       .  A
C810        O819   1.271       .  A
C810        C839   1.396       .  S
O811        C817   1.274       .  A
O811      Ni1822   1.910       .  S
O812        C814   1.276       .  A
O812       Ni830   1.935       .  S
Ni813       O816   1.937       .  S
Ni813       O818   1.894       .  S
C814        O824   1.275       .  A
C814        C854   1.464       .  S
O815        C821   1.270       .  A
O815       Ni831   1.908       .  S
O816        C821   1.275       .  A
O818        C820   1.261       .  A
O819       Ni830   1.904       .  S
C820        O826   1.265       .  A
C820        C872   1.424       .  S
C821        C860   1.442       .  S
H822        O823   0.966       .  S
O823       Ni831   1.884       .  S
O823       Ni825   1.868       .  S
O823       Ni830   1.904       .  S
O824       Ni825   1.947       .  S
Ni825       O829   1.875       .  S
Ni825       O827   1.878       .  S
O826       Ni831   1.915       .  S
C828        O829   1.257       .  A
Ni830      O1803   1.910   1_455  S
Ni831      O1800   1.901   1_455  S
C833        C834   1.220       .  T
C835        C836   1.198       .  T
C837        C838   1.200       .  T
C839        C840   1.181       .  T
C841        C842   1.233       .  T
C843        C844   1.196       .  T
C845       C1735   1.442       .  S
C845        C846   1.210       .  T
C847        C848   1.204       .  T
C849        C850   1.200       .  T
C851        C852   1.196       .  T
C853        C854   1.223       .  T
C855        C856   1.187       .  T
C857        C858   1.202       .  T
C859       C1852   1.210       .  T
C860       C1851   1.210   1_455  T
C861        C862   1.186       .  T
C863        C864   1.236       .  T
C865        C866   1.213       .  T
C867        C868   1.208       .  T
C869        C870   1.215       .  T
C871        C872   1.199       .  T
C873        C874   1.215       .  T
C875        C876   1.211       .  T
C877        C878   1.229       .  T
C879        C880   1.187       .  T
C881        C882   1.183       .  T
C883        C884   1.223       .  T
C885        C886   1.187       .  T
C887       C1880   1.242       .  T
C888       C1879   1.242   1_455  T
C889        C890   1.210       .  T
C891        C892   1.195       .  T
C893        C894   1.214       .  T
C895        C896   1.213       .  T
C897        C898   1.202       .  T
C899        C900   1.212       .  T
C901        C902   1.221       .  T
C903        C904   1.209       .  T
C905        C906   1.192       .  T
C907        C908   1.231       .  T
C909        C910   1.190       .  T
C911       C1904   1.240       .  T
C912       C1903   1.240       .  T
C913        C914   1.205       .  T
C915       C1293   1.429       .  S
C915        C916   1.202       .  T
C917        C918   1.210       .  T
C919        C920   1.213       .  T
C921        C922   1.203   1_554  T
C923        C924   1.226       .  T
C925        C926   1.192       .  T
C927        C928   1.209       .  T
C929        C930   1.186       .  T
C931        C932   1.218       .  T
C933        C934   1.187       .  T
C935        C936   1.217       .  T
C937        C938   1.193       .  T
C939        C940   1.219       .  T
C941        C942   1.186       .  T
C943        C944   1.218       .  T
C945        C946   1.203       .  T
C947        C948   1.204       .  T
C949        C950   1.207       .  T
C951        C952   1.205       .  T
C952       C1189   1.434       .  S
C953        C954   1.206       .  T
C955        C956   1.201       .  T
C957        C958   1.214       .  T
C959        C960   1.198       .  T
C961        C962   1.212       .  T
C963        C964   1.192       .  T
C965        C966   1.199       .  T
C967        C968   1.200       .  T
C969        C970   1.187       .  T
C971       C1964   1.233   1_455  T
C972       C1963   1.233       .  T
C973        C974   1.232       .  T
C975        C976   1.185       .  T
C977        C978   1.196       .  T
C979        C980   1.200       .  T
C981        C982   1.186       .  T
C983        C984   1.216       .  T
C985        C986   1.206       .  T
C987        C996   1.454   1_556  S
C987        C988   1.218   1_655  T
C989        C990   1.189       .  T
C991        C992   1.236       .  T
O993       C1014   1.281       .  A
O994       C1003   1.256       .  A
O994      Ni1017   1.870       .  S
O995       Ni999   1.902       .  S
O995      Ni1017   1.865       .  S
O995      Ni1011   1.901       .  S
O995       H1018   0.966       .  S
C996       O1013   1.272       .  A
C996       O1005   1.280       .  A
O997       C1003   1.274       .  A
O997      Ni1016   1.948       .  S
O998       C1000   1.264       .  A
O998      Ni1016   1.906       .  S
Ni999      O1002   1.908       .  S
Ni999      O1004   1.956       .  S
C1000      O1010   1.269       .  A
C1000      C1978   1.436       .  S
O1001      C1007   1.272       .  A
O1001     Ni1017   1.896       .  S
O1002      C1007   1.272       .  A
C1003      C1029   1.461       .  S
O1004      C1006   1.282       .  A
O1005     Ni1016   1.949       .  S
C1006      O1012   1.275       .  A
C1006      C1983   1.484   1_554  S
C1007      C1981   1.407       .  S
H1008      O1009   0.966       .  S
O1009     Ni1017   1.927       .  S
O1009     Ni1011   1.913       .  S
O1009     Ni1016   1.937       .  S
O1010     Ni1011   1.927       .  S
Ni1011     O1013   1.918       .  S
O1012     Ni1017   1.947       .  S
C1014      O1015   1.264       .  A
C1014      C1040   1.466       .  S
O1019      C1040   1.274       .  A
O1019     Ni1025   1.919       .  S
O1020      C1029   1.261       .  A
O1020     Ni1043   1.883       .  S
O1021     Ni1025   1.897       .  S
O1021     Ni1043   1.882       .  S
O1021     Ni1037   1.879       .  S
O1021      H1044   0.967       .  S
C1022      O1039   1.274       .  A
C1022      O1031   1.272       .  A
C1022      C1971   1.425       .  S
O1023      C1029   1.266       .  A
O1023     Ni1042   1.930       .  S
O1024      C1026   1.263       .  A
O1024     Ni1042   1.899       .  S
Ni1025     O1028   1.908       .  S
Ni1025     O1030   1.925       .  S
C1026      O1036   1.263       .  A
C1026      C1970   1.418       .  S
O1027      C1033   1.262       .  A
O1027     Ni1043   1.880       .  S
O1028      C1033   1.268       .  A
O1030      C1032   1.275       .  A
O1031     Ni1042   1.914       .  S
C1032      O1038   1.279       .  A
C1032      C1975   1.453       .  S
C1033      C1973   1.405   1_554  S
H1034      O1035   0.966       .  S
O1035     Ni1043   1.906       .  S
O1035     Ni1037   1.922       .  S
O1035     Ni1042   1.932       .  S
O1036     Ni1037   1.904       .  S
Ni1037     O1041   1.904       .  S
Ni1037     O1039   1.913       .  S
O1038     Ni1043   1.953       .  S
C1040      O1041   1.275       .  A
O1045      C1066   1.266       .  A
O1045     Ni1051   1.919       .  S
O1046      C1055   1.263       .  A
O1046     Ni1069   1.889       .  S
O1047     Ni1051   1.935       .  S
O1047     Ni1069   1.902       .  S
O1047     Ni1063   1.949       .  S
O1047      H1070   0.966       .  S
C1048      O1065   1.283       .  A
C1048      O1057   1.274       .  A
C1048      C1963   1.479       .  S
O1049      C1055   1.270       .  A
O1049     Ni1068   1.932       .  S
O1050      C1052   1.265       .  A
O1050     Ni1068   1.893       .  S
Ni1051     O1054   1.934       .  S
Ni1051     O1056   1.890       .  S
C1052      O1062   1.266       .  A
C1052      C1962   1.400       .  S
O1053      C1059   1.282       .  A
O1053     Ni1069   1.959       .  S
O1054      C1059   1.271       .  A
C1055      C1960   1.425       .  S
O1056      C1058   1.264       .  A
O1057     Ni1068   1.944       .  S
C1058      O1064   1.264       .  A
C1058      C1968   1.394       .  S
C1059      C1966   1.477       .  S
H1060      O1061   0.966       .  S
O1061     Ni1069   1.942       .  S
O1061     Ni1063   1.901       .  S
O1061     Ni1068   1.929       .  S
O1062     Ni1063   1.894       .  S
Ni1063     O1067   1.898       .  S
Ni1063     O1065   1.959       .  S
O1064     Ni1069   1.884       .  S
C1066      O1067   1.266       .  A
C1066      C1957   1.423       .  S
O1071      C1092   1.274   1_556  A
O1071     Ni1077   1.942       .  S
O1072      C1081   1.266   1_655  A
O1073     Ni1077   1.915       .  S
O1073     Ni1095   1.891       .  S
O1073     Ni1089   1.903       .  S
C1074      O1091   1.263       .  A
C1074      O1083   1.268       .  A
C1074      C1953   1.444       .  S
O1075     Ni1094   1.922       .  S
O1076     Ni1094   1.899       .  S
Ni1077     O1082   1.913       .  S
C1078      C1956   1.409       .  S
O1079      C1085   1.276       .  A
O1080      C1085   1.275       .  A
C1081      C1948   1.427   1_455  S
O1082      C1084   1.270       .  A
O1083     Ni1094   1.941       .  S
C1084      O1090   1.266       .  A
C1084      C1951   1.420       .  S
C1085      C1950   1.448       .  S
H1086      O1087   0.967       .  S
O1087     Ni1095   1.947       .  S
O1087     Ni1089   1.897       .  S
O1087     Ni1094   1.926       .  S
O1088     Ni1089   1.922       .  S
Ni1089     O1093   1.872       .  S
Ni1089     O1091   1.911       .  S
O1090     Ni1095   1.909       .  S
C1092      O1093   1.258   1_554  A
C1092      C1958   1.421       .  S
O1097      C1118   1.270       .  A
O1097     Ni1103   1.936       .  S
O1098      C1107   1.261       .  A
O1098     Ni1121   1.890       .  S
O1099     Ni1103   1.931       .  S
O1099     Ni1121   1.907       .  S
O1099     Ni1115   1.915       .  S
O1099      H1122   0.966       .  S
C1100      O1117   1.269       .  A
C1100      O1109   1.271       .  A
C1100      C1937   1.431       .  S
O1101      C1107   1.269       .  A
O1101     Ni1120   1.931       .  S
O1102      C1104   1.268       .  A
O1102     Ni1120   1.909       .  S
Ni1103     O1106   1.931       .  S
Ni1103     O1108   1.911       .  S
C1104      O1114   1.270       .  A
C1104      C1945   1.435       .  S
O1105      C1111   1.268       .  A
O1105     Ni1121   1.904       .  S
O1106      C1111   1.272       .  A
C1107      C1947   1.427       .  S
O1108      C1110   1.269       .  A
O1109     Ni1120   1.925       .  S
C1110      O1116   1.271       .  A
C1110      C1941   1.436       .  S
C1111      C1943   1.434       .  S
H1112      O1113   0.966       .  S
O1113     Ni1121   1.911       .  S
O1113     Ni1115   1.905       .  S
O1113     Ni1120   1.930       .  S
O1114     Ni1115   1.928       .  S
Ni1115     O1119   1.892       .  S
Ni1115     O1117   1.906       .  S
O1116     Ni1121   1.929       .  S
C1118      O1119   1.262       .  A
C1118      C1939   1.431       .  S
O1123      C1144   1.271       .  A
O1123     Ni1129   1.927       .  S
O1124      C1133   1.261       .  A
O1124     Ni1147   1.880       .  S
O1125     Ni1129   1.925       .  S
O1125     Ni1147   1.899       .  S
O1125     Ni1141   1.955       .  S
O1125      H1148   0.968       .  S
C1126      O1143   1.279       .  A
C1126      O1135   1.276       .  A
C1126      C1932   1.457       .  S
O1127      C1133   1.274       .  A
O1127     Ni1146   1.942       .  S
O1128      C1130   1.269       .  A
O1128     Ni1146   1.906       .  S
Ni1129     O1132   1.949       .  S
Ni1129     O1134   1.893       .  S
C1130      O1140   1.264       .  A
C1130      C1929   1.410       .  S
O1131      C1137   1.266       .  A
O1131     Ni1147   1.919       .  S
O1132      C1137   1.270       .  A
C1133      C1959   1.425       .  S
O1134      C1136   1.272       .  A
O1135     Ni1146   1.943       .  S
C1136      O1142   1.274       .  A
C1136      C1934   1.399       .  S
C1137      C1936   1.455       .  S
H1138      O1139   0.966       .  S
O1139     Ni1147   1.909       .  S
O1139     Ni1141   1.893       .  S
O1139     Ni1146   1.914       .  S
O1140     Ni1141   1.901       .  S
Ni1141     O1145   1.899       .  S
Ni1141     O1143   1.936       .  S
O1142     Ni1147   1.917       .  S
C1144      O1145   1.267       .  A
C1144      C1940   1.431       .  S
O1149      C1170   1.274       .  A
O1149     Ni1155   1.920       .  S
O1150      C1159   1.261       .  A
O1150     Ni1173   1.882       .  S
O1151     Ni1155   1.900       .  S
O1151     Ni1173   1.882       .  S
O1151     Ni1167   1.880       .  S
O1151      H1174   0.967       .  S
C1152      O1169   1.274       .  A
C1152      O1161   1.273       .  A
C1152      C1938   1.431       .  S
O1153      C1159   1.267       .  A
O1153     Ni1172   1.937       .  S
O1154      C1156   1.262       .  A
O1154     Ni1172   1.894       .  S
Ni1155     O1158   1.906       .  S
Ni1155     O1160   1.928       .  S
C1156      O1166   1.262       .  A
C1156      C1930   1.413       .  S
O1157      C1163   1.262       .  A
O1157     Ni1173   1.885       .  S
O1158      C1163   1.267       .  A
C1159      C1315   1.465       .  S
O1160      C1162   1.276       .  A
O1161     Ni1172   1.920       .  S
C1162      O1168   1.278       .  A
C1162      C1927   1.454       .  S
C1163      C1926   1.407       .  S
H1164      O1165   0.966       .  S
O1165     Ni1173   1.910       .  S
O1165     Ni1167   1.929       .  S
O1165     Ni1172   1.937       .  S
O1166     Ni1167   1.901       .  S
Ni1167     O1171   1.909       .  S
Ni1167     O1169   1.914       .  S
O1168     Ni1173   1.952       .  S
C1170      O1171   1.276       .  A
C1170      C1326   1.472       .  S
O1175      C1196   1.268       .  A
O1175     Ni1181   1.932       .  S
O1176      C1185   1.269       .  A
O1177     Ni1181   1.934       .  S
O1177     Ni1199   1.919       .  S
O1177     Ni1193   1.917       .  S
O1177      H1200   0.966       .  S
C1178      O1195   1.267       .  A
C1178      O1187   1.270       .  A
C1178      C1922   1.403       .  S
O1179      C1185   1.274       .  A
O1180      C1182   1.275       .  A
O1180     Ni1198   1.928       .  S
Ni1181     O1184   1.925       .  S
Ni1181     O1186   1.903       .  S
C1182      O1192   1.276       .  A
C1182      C1923   1.455       .  S
O1183      C1189   1.272       .  A
O1183     Ni1199   1.912       .  S
O1184      C1189   1.273       .  A
C1185      C1341   1.464       .  S
O1186      C1188   1.264       .  A
O1187     Ni1198   1.911       .  S
C1188      O1194   1.263       .  A
C1188      C1952   1.423       .  S
H1190      O1191   0.967       .  S
O1191     Ni1199   1.885       .  S
O1191     Ni1193   1.871       .  S
O1191     Ni1198   1.899       .  S
O1192     Ni1193   1.947       .  S
Ni1193     O1197   1.886       .  S
Ni1193     O1195   1.885       .  S
O1194     Ni1199   1.907       .  S
C1196      O1197   1.263       .  A
C1196      C1352   1.462       .  S
O1201      C1222   1.265       .  A
O1201     Ni1207   1.893       .  S
O1202      C1211   1.261       .  A
O1202     Ni1225   1.884       .  S
O1203     Ni1207   1.908       .  S
O1203     Ni1225   1.871       .  S
O1203     Ni1219   1.893       .  S
O1203      H1226   0.966       .  S
C1204      O1221   1.268       .  A
C1204      O1213   1.273       .  A
C1204      C1920   1.440       .  S
O1205      C1211   1.268       .  A
O1205     Ni1224   1.937       .  S
O1206      C1208   1.259       .  A
O1206     Ni1224   1.882       .  S
Ni1207     O1210   1.907       .  S
Ni1207     O1212   1.912       .  S
C1208      O1218   1.265       .  A
C1208      C1917   1.412       .  S
O1209      C1215   1.267       .  A
O1209     Ni1225   1.889       .  S
O1210      C1215   1.271       .  A
C1211      C1237   1.468       .  S
O1212      C1214   1.268       .  A
O1213     Ni1224   1.934   1_556  S
C1214      O1220   1.275       .  A
C1214      C1954   1.445   1_554  S
C1215      C1961   1.406       .  S
H1216      O1217   0.966   1_556  S
O1217     Ni1225   1.927       .  S
O1217     Ni1219   1.932       .  S
O1217     Ni1224   1.945       .  S
O1218     Ni1219   1.910       .  S
Ni1219     O1223   1.899       .  S
Ni1219     O1221   1.906   1_554  S
O1220     Ni1225   1.942       .  S
C1222      O1223   1.269       .  A
C1222      C1248   1.459       .  S
O1227      C1248   1.278       .  A
O1227     Ni1233   1.910       .  S
O1228      C1237   1.256       .  A
O1229     Ni1233   1.906       .  S
O1229     Ni1251   1.864       .  S
O1229     Ni1245   1.909       .  S
O1229      H1252   0.966       .  S
C1230      O1247   1.271       .  A
C1230      O1239   1.283       .  A
C1230      C1916   1.469       .  S
O1231      C1237   1.277       .  A
O1232      C1234   1.262       .  A
O1232     Ni1250   1.899       .  S
Ni1233     O1236   1.905       .  S
Ni1233     O1238   1.952       .  S
C1234      O1244   1.267       .  A
C1234      C1913   1.430       .  S
O1236      C1241   1.271       .  A
O1238      C1240   1.280       .  A
O1239     Ni1250   1.967       .  S
C1240      O1246   1.274       .  A
C1240      C1964   1.479       .  S
C1241      C1955   1.411   1_554  S
H1242      O1243   0.966       .  S
O1243     Ni1251   1.933       .  S
O1243     Ni1245   1.914       .  S
O1243     Ni1250   1.942       .  S
O1244     Ni1245   1.923       .  S
Ni1245     O1249   1.875       .  S
Ni1245     O1247   1.919       .  S
O1246     Ni1251   1.944       .  S
C1248      O1249   1.260       .  A
O1253      C1274   1.272       .  A
O1253     Ni1259   1.941       .  S
O1254      C1263   1.261       .  A
O1254     Ni1277   1.875       .  S
O1255     Ni1259   1.939       .  S
O1255     Ni1277   1.912       .  S
O1255     Ni1271   1.922       .  S
O1255      H1278   0.966       .  S
C1256      O1273   1.272       .  A
C1256      O1265   1.271       .  A
C1256      C1933   1.403       .  S
O1257      C1263   1.277       .  A
O1257     Ni1276   1.912       .  S
O1258      C1260   1.279       .  A
O1258     Ni1276   1.948       .  S
Ni1259     O1262   1.944       .  S
Ni1259     O1264   1.911       .  S
C1260      O1270   1.276       .  A
C1260      C1965   1.478       .  S
O1261      C1267   1.269       .  A
O1261     Ni1277   1.908       .  S
O1262      C1267   1.277       .  A
C1263      C1289   1.457       .  S
O1264      C1266   1.265       .  A
O1265     Ni1276   1.903       .  S
C1266      O1272   1.268       .  A
C1266      C1909   1.442       .  S
C1267      C1911   1.446       .  S
H1268      O1269   0.966       .  S
O1269     Ni1277   1.898       .  S
O1269     Ni1271   1.866       .  S
O1269     Ni1276   1.903       .  S
O1270     Ni1271   1.950       .  S
Ni1271     O1275   1.873       .  S
Ni1271     O1273   1.894       .  S
O1272     Ni1277   1.928       .  S
C1274      O1275   1.259       .  A
C1274      C1300   1.457       .  S
O1279      C1300   1.269       .  A
O1279     Ni1285   1.937       .  S
O1280      C1289   1.269       .  A
O1281     Ni1285   1.935       .  S
O1281     Ni1303   1.917       .  S
O1281     Ni1297   1.906       .  S
O1281      H1304   0.966       .  S
C1282      O1299   1.264       .  A
C1282      O1291   1.272       .  A
C1282      C1967   1.401       .  S
O1283      C1289   1.269       .  A
O1284      C1286   1.271       .  A
O1284     Ni1302   1.924       .  S
Ni1285     O1288   1.925       .  S
Ni1285     O1290   1.906       .  S
C1286      O1296   1.274       .  A
C1286      C1935   1.456       .  S
O1287      C1293   1.271       .  A
O1287     Ni1303   1.906       .  S
O1288      C1293   1.274       .  A
O1290      C1292   1.264       .  A
O1291     Ni1302   1.908       .  S
C1292      O1298   1.266       .  A
C1292      C1906   1.433       .  S
H1294      O1295   0.966       .  S
O1295     Ni1303   1.887       .  S
O1295     Ni1297   1.873       .  S
O1295     Ni1302   1.905       .  S
O1296     Ni1297   1.945       .  S
Ni1297     O1301   1.873       .  S
Ni1297     O1299   1.878       .  S
O1298     Ni1303   1.920       .  S
C1300      O1301   1.257       .  A
O1305      C1326   1.283       .  A
O1305     Ni1311   1.920       .  S
O1306      C1315   1.256       .  A
O1307     Ni1311   1.904       .  S
O1307     Ni1329   1.864       .  S
O1307     Ni1323   1.902       .  S
O1307      H1330   0.967       .  S
C1308      O1325   1.273       .  A
C1308      O1317   1.281       .  A
C1308      C1931   1.457       .  S
O1309      C1315   1.275       .  A
O1310      C1312   1.263       .  A
O1310     Ni1328   1.903       .  S
Ni1311     O1314   1.908       .  S
Ni1311     O1316   1.964       .  S
C1312      O1322   1.269       .  A
C1312      C1946   1.436       .  S
O1313      C1319   1.272       .  A
O1313     Ni1329   1.896       .  S
O1314      C1319   1.272       .  A
O1316      C1318   1.284       .  A
O1317     Ni1328   1.952       .  S
C1318      O1324   1.275       .  A
C1318      C1903   1.492       .  S
C1319      C1901   1.408       .  S
H1320      O1321   0.966       .  S
O1321     Ni1329   1.927       .  S
O1321     Ni1323   1.917       .  S
O1321     Ni1328   1.938       .  S
O1322     Ni1323   1.929       .  S
Ni1323     O1327   1.889       .  S
Ni1323     O1325   1.919       .  S
O1324     Ni1329   1.950       .  S
C1326      O1327   1.266       .  A
O1331      C1352   1.274       .  A
O1331     Ni1337   1.947       .  S
O1332      C1341   1.265       .  A
O1332     Ni1355   1.886       .  S
O1333     Ni1337   1.933       .  S
O1333     Ni1355   1.913       .  S
O1333     Ni1349   1.924       .  S
O1333      H1356   0.966       .  S
C1334      O1351   1.272       .  A
C1334      O1343   1.273       .  A
C1334      C1897   1.410       .  S
O1335      C1341   1.278       .  A
O1335     Ni1354   1.913       .  S
O1336      C1338   1.279       .  A
O1336     Ni1354   1.950       .  S
Ni1337     O1340   1.943       .  S
Ni1337     O1342   1.907       .  S
C1338      O1348   1.274       .  A
C1338      C1899   1.477       .  S
O1339      C1345   1.272       .  A
O1339     Ni1355   1.914       .  S
O1340      C1345   1.279       .  A
O1342      C1344   1.264       .  A
O1343     Ni1354   1.911       .  S
C1344      O1350   1.269       .  A
C1344      C1942   1.436       .  S
C1345      C1949   1.448       .  S
H1346      O1347   0.967       .  S
O1347     Ni1355   1.900       .  S
O1347     Ni1349   1.866       .  S
O1347     Ni1354   1.905       .  S
O1348     Ni1349   1.946       .  S
Ni1349     O1353   1.874       .  S
Ni1349     O1351   1.895       .  S
O1350     Ni1355   1.926       .  S
C1352      O1353   1.258       .  A
O1357      C1378   1.278       .  A
O1358      C1367   1.265       .  A
O1358     Ni1381   1.905       .  S
O1359     Ni1363   1.930       .  S
O1359     Ni1381   1.916       .  S
O1359      H1382   0.966       .  S
C1360      O1377   1.266       .  A
C1360      O1369   1.267       .  A
C1360      C1972   1.425       .  S
O1361      C1367   1.269       .  A
O1362      C1364   1.274       .  A
Ni1363     O1366   1.954       .  S
C1364      O1374   1.275   1_655  A
C1364      C1977   1.435       .  S
O1365      C1371   1.268       .  A
O1365     Ni1381   1.907       .  S
O1366      C1371   1.277       .  A
C1367      C1895   1.439       .  S
O1368      C1370   1.272       .  A
O1369     Ni1380   1.922       .  S
C1370      O1376   1.267       .  A
C1370      C1905   1.431       .  S
C1371      C1912   1.447       .  S
H1372      O1373   0.965       .  S
O1373     Ni1375   1.908       .  S
O1373     Ni1380   1.927       .  S
Ni1375     O1379   1.910       .  S
Ni1375     O1377   1.905       .  S
C1378      O1379   1.267       .  A
C1378      C1893   1.460       .  S
O1383      C1404   1.278       .  A
O1383     Ni1389   1.958   1_554  S
O1384      C1393   1.271       .  A
O1384     Ni1407   1.914       .  S
O1385     Ni1389   1.932       .  S
O1385     Ni1407   1.925       .  S
O1385     Ni1401   1.960       .  S
O1385      H1408   0.968       .  S
C1386      O1403   1.277       .  A
C1386      O1395   1.274       .  A
C1386      C1980   1.454       .  S
O1387      C1393   1.272       .  A
O1387     Ni1406   1.936       .  S
O1388      C1390   1.270       .  A
O1388     Ni1406   1.911       .  S
Ni1389     O1392   1.966       .  S
Ni1389     O1394   1.896       .  S
C1390      O1400   1.265       .  A
C1390      C1969   1.414   1_556  S
O1391      C1397   1.274       .  A
O1391     Ni1407   1.937       .  S
O1392      C1397   1.277       .  A
C1393      C1892   1.445       .  S
O1394      C1396   1.271       .  A
O1395     Ni1406   1.940       .  S
C1396      O1402   1.270       .  A
C1396      C1921   1.398       .  S
C1397      C1900   1.478       .  S
H1398      O1399   0.966       .  S
O1399     Ni1407   1.915       .  S
O1399     Ni1401   1.894       .  S
O1399     Ni1406   1.918       .  S
O1400     Ni1401   1.903       .  S
Ni1401     O1405   1.907   1_556  S
Ni1401     O1403   1.932       .  S
O1402     Ni1407   1.903       .  S
C1404      O1405   1.265       .  A
C1404      C1894   1.460       .  S
O1409      C1430   1.273       .  A
O1409     Ni1415   1.941       .  S
O1410      C1419   1.265       .  A
O1410     Ni1433   1.900       .  S
O1411     Ni1415   1.931       .  S
O1411     Ni1433   1.917       .  S
O1411     Ni1427   1.946       .  S
O1411      H1434   0.967       .  S
C1412      O1429   1.274       .  A
C1412      O1421   1.273       .  A
C1412      C1887   1.446       .  S
O1413      C1419   1.275       .  A
O1413     Ni1432   1.944       .  S
O1414      C1416   1.274       .  A
O1414     Ni1432   1.921       .  S
Ni1415     O1418   1.948       .  S
Ni1415     O1420   1.905       .  S
C1416      O1426   1.267       .  A
C1416      C1889   1.425       .  S
O1417      C1423   1.269       .  A
O1417     Ni1433   1.921       .  S
O1418      C1423   1.272       .  A
C1419      C1891   1.444       .  S
O1420      C1422   1.272       .  A
O1421     Ni1432   1.937       .  S
C1422      O1428   1.267       .  A
C1422      C1898   1.407       .  S
C1423      C1924   1.454       .  S
H1424      O1425   0.966       .  S
O1425     Ni1433   1.913       .  S
O1425     Ni1427   1.898       .  S
O1425     Ni1432   1.919       .  S
O1426     Ni1427   1.911       .  S
Ni1427     O1431   1.908       .  S
Ni1427     O1429   1.924       .  S
O1428     Ni1433   1.905       .  S
C1430      O1431   1.267       .  A
C1430      C1886   1.449       .  S
O1435      C1456   1.274       .  A
O1435     Ni1441   1.948       .  S
O1436      C1445   1.264       .  A
O1436     Ni1459   1.904       .  S
O1437     Ni1441   1.933       .  S
O1437     Ni1459   1.916       .  S
O1437     Ni1453   1.908       .  S
O1437      H1460   0.967       .  S
C1438      O1455   1.265       .  A
C1438      O1447   1.267       .  A
C1438      C1883   1.415       .  S
O1439      C1445   1.269       .  A
O1439     Ni1458   1.930       .  S
O1440      C1442   1.273       .  A
O1440     Ni1458   1.919       .  S
Ni1441     O1444   1.934       .  S
Ni1441     O1446   1.924       .  S
C1442      O1452   1.273       .  A
C1442      C1881   1.440       .  S
O1443      C1449   1.267       .  A
O1443     Ni1459   1.898       .  S
O1444      C1449   1.273       .  A
C1445      C1896   1.439       .  S
O1446      C1448   1.273       .  A
O1447     Ni1458   1.918       .  S
C1448      O1454   1.268       .  A
C1448      C1910   1.440       .  S
C1449      C1908   1.429       .  S
H1450      O1451   0.965       .  S
O1451     Ni1459   1.908       .  S
O1451     Ni1453   1.909       .  S
O1451     Ni1458   1.930       .  S
O1452     Ni1453   1.935       .  S
Ni1453     O1457   1.904       .  S
Ni1453     O1455   1.894       .  S
O1454     Ni1459   1.923       .  S
C1456      O1457   1.264       .  A
C1456      C1885   1.449       .  S
O1461      C1482   1.285       .  A
O1461     Ni1467   1.931       .  S
O1462      C1471   1.256       .  A
O1463     Ni1467   1.901       .  S
O1463     Ni1485   1.864       .  S
O1463     Ni1479   1.896       .  S
O1463      H1486   0.966       .  S
C1464      O1481   1.273       .  A
C1464      O1473   1.277       .  A
C1464      C1888   1.446       .  S
O1465      C1471   1.272       .  A
O1466      C1468   1.265       .  A
O1466     Ni1484   1.908       .  S
Ni1467     O1470   1.908       .  S
Ni1467     O1472   1.968       .  S
C1468      O1478   1.272       .  A
C1468      C1882   1.442       .  S
O1470      C1475   1.272       .  A
C1471      C1497   1.456       .  S
O1472      C1474   1.286       .  A
O1473     Ni1484   1.937       .  S
C1474      O1480   1.275       .  A
C1474      C1879   1.495       .  S
C1475      C1878   1.402       .  S
H1476      O1477   0.966       .  S
O1477     Ni1485   1.924       .  S
O1477     Ni1479   1.917       .  S
O1477     Ni1484   1.937       .  S
O1478     Ni1479   1.936       .  S
Ni1479     O1483   1.893       .  S
Ni1479     O1481   1.918       .  S
O1480     Ni1485   1.950       .  S
C1482      O1483   1.269       .  A
C1482      C1508   1.480       .  S
O1487      C1508   1.280       .  A
O1487     Ni1493   1.939       .  S
O1488      C1497   1.260       .  A
O1488     Ni1511   1.877       .  S
O1489     Ni1493   1.902       .  S
O1489     Ni1511   1.904       .  S
O1489     Ni1505   1.877       .  S
O1489      H1512   0.967       .  S
C1490      O1507   1.277       .  A
C1490      O1499   1.271       .  A
C1490      C1884   1.417       .  S
O1491      C1497   1.265       .  A
O1491     Ni1510   1.928       .  S
O1492      C1494   1.264       .  A
O1492     Ni1510   1.907       .  S
Ni1493     O1496   1.895       .  S
Ni1493     O1498   1.940       .  S
C1494      O1504   1.264       .  A
C1494      C1890   1.430       .  S
O1495      C1501   1.256       .  A
O1495     Ni1511   1.883       .  S
O1496      C1501   1.262       .  A
O1498      C1500   1.283       .  A
O1499     Ni1510   1.905       .  S
C1500      O1506   1.282       .  A
C1500      C1876   1.463       .  S
C1501      C1874   1.403       .  S
H1502      O1503   0.966       .  S
O1503     Ni1511   1.890       .  S
O1503     Ni1505   1.917       .  S
O1503     Ni1510   1.927       .  S
O1504     Ni1505   1.914       .  S
Ni1505     O1509   1.911       .  S
Ni1505     O1507   1.915       .  S
O1506     Ni1511   1.958       .  S
C1508      O1509   1.278       .  A
O1513      C1534   1.276       .  A
O1513     Ni1519   1.948       .  S
O1514      C1523   1.266       .  A
O1514     Ni1537   1.898       .  S
O1515     Ni1519   1.928       .  S
O1515     Ni1537   1.909       .  S
O1515     Ni1531   1.957       .  S
O1515      H1538   0.967       .  S
C1516      O1533   1.278       .  A
C1516      O1525   1.278       .  A
C1516      C1915   1.469       .  S
O1517      C1523   1.277       .  A
O1517     Ni1536   1.952       .  S
O1518      C1520   1.270       .  A
O1518     Ni1536   1.907       .  S
Ni1519     O1522   1.963       .  S
Ni1519     O1524   1.897       .  S
C1520      O1530   1.264       .  A
C1520      C1918   1.408       .  S
O1521      C1527   1.271       .  A
O1521     Ni1537   1.933       .  S
O1522      C1527   1.274       .  A
C1523      C1867   1.444       .  S
O1524      C1526   1.273       .  A
O1525     Ni1536   1.956       .  S
C1526      O1532   1.272       .  A
C1526      C1871   1.399       .  S
C1527      C1870   1.473       .  S
H1528      O1529   0.966       .  S
O1529     Ni1537   1.924       .  S
O1529     Ni1531   1.901       .  S
O1529     Ni1536   1.920       .  S
O1530     Ni1531   1.898       .  S
Ni1531     O1535   1.906       .  S
Ni1531     O1533   1.939       .  S
O1532     Ni1537   1.909       .  S
C1534      O1535   1.267       .  A
C1534      C1866   1.451       .  S
O1539      C1560   1.276       .  A
O1539     Ni1545   1.950       .  S
O1540      C1549   1.268       .  A
O1541     Ni1545   1.917       .  S
O1541     Ni1563   1.899       .  S
O1541     Ni1557   1.912       .  S
C1542      O1559   1.266       .  A
C1542      O1551   1.272       .  A
C1542      C1928   1.453       .  S
O1543      C1549   1.274   1_455  A
O1544      C1546   1.273       .  A
Ni1545     O1550   1.918       .  S
C1546      C1902   1.404   1_455  S
O1547      C1553   1.275       .  A
O1548      C1553   1.275       .  A
C1549      C1858   1.447       .  S
O1550      C1552   1.274       .  A
O1551     Ni1562   1.955       .  S
C1552      O1558   1.266       .  A
C1552      C1863   1.419       .  S
C1553      C1862   1.450       .  S
H1554      O1555   0.966       .  S
O1555     Ni1563   1.947       .  S
O1555     Ni1557   1.905       .  S
O1555     Ni1562   1.927       .  S
O1556     Ni1557   1.911       .  S
Ni1557     O1561   1.886       .  S
Ni1557     O1559   1.915       .  S
O1558     Ni1563   1.906       .  S
C1560      O1561   1.261       .  A
C1560      C1859   1.438       .  S
O1565      C1586   1.271       .  A
O1565     Ni1571   1.928       .  S
O1566      C1575   1.265       .  A
O1566     Ni1589   1.897       .  S
O1567     Ni1571   1.933       .  S
O1567     Ni1589   1.904       .  S
O1567     Ni1583   1.953       .  S
O1567      H1590   0.966       .  S
C1568      O1585   1.282       .  A
C1568      O1577   1.277       .  A
C1568      C1904   1.493       .  S
O1569      C1575   1.275       .  A
O1569     Ni1588   1.949       .  S
O1570      C1572   1.269       .  A
O1570     Ni1588   1.896       .  S
Ni1571     O1574   1.953       .  S
Ni1571     O1576   1.894       .  S
C1572      O1582   1.269       .  A
C1572      C1925   1.397       .  S
O1573      C1579   1.280       .  A
O1573     Ni1589   1.958       .  S
O1574      C1579   1.273       .  A
C1575      C1868   1.444       .  S
O1576      C1578   1.267       .  A
O1577     Ni1588   1.964       .  S
C1578      O1584   1.267       .  A
C1578      C1854   1.395       .  S
C1579      C1856   1.485       .  S
H1580      O1581   0.967       .  S
O1581     Ni1589   1.954       .  S
O1581     Ni1583   1.910       .  S
O1581     Ni1588   1.934       .  S
O1582     Ni1583   1.896       .  S
Ni1583     O1587   1.910       .  S
Ni1583     O1585   1.961       .  S
O1584     Ni1589   1.892       .  S
C1586      O1587   1.270       .  A
C1586      C1860   1.439       .  S
O1591      C1612   1.274   1_556  A
O1591     Ni1597   1.946       .  S
O1592      C1601   1.266       .  A
O1592     Ni1615   1.906       .  S
O1593     Ni1597   1.927       .  S
O1593     Ni1615   1.911       .  S
O1593     Ni1609   1.920       .  S
O1593      H1616   0.966       .  S
C1594      O1611   1.267       .  A
C1594      O1603   1.271       .  A
C1594      C1919   1.440       .  S
O1595      C1601   1.273       .  A
O1595     Ni1614   1.941       .  S
O1596      C1598   1.273       .  A
O1596     Ni1614   1.912       .  S
Ni1597     O1600   1.945       .  S
Ni1597     O1602   1.912       .  S
C1598      O1608   1.274       .  A
C1598      C1914   1.429       .  S
O1599      C1605   1.267       .  A
O1599     Ni1615   1.908       .  S
O1600      C1605   1.273       .  A
C1601      C1857   1.447       .  S
O1602      C1604   1.272       .  A
O1603     Ni1614   1.940       .  S
C1604      O1610   1.271       .  A
C1604      C1850   1.426       .  S
C1605      C1851   1.442       .  S
H1606      O1607   0.966       .  S
O1607     Ni1615   1.923       .  S
O1607     Ni1609   1.911       .  S
O1607     Ni1614   1.927       .  S
O1608     Ni1609   1.931       .  S
Ni1609     O1613   1.910       .  S
Ni1609     O1611   1.909       .  S
O1610     Ni1615   1.925       .  S
C1612      O1613   1.267   1_554  A
C1612      C1865   1.451       .  S
O1617      C1638   1.266       .  A
O1617     Ni1623   1.911   1_554  S
O1618      C1627   1.254       .  A
O1618     Ni1641   1.870   1_565  S
O1619     Ni1623   1.933       .  S
O1619     Ni1641   1.896       .  S
O1619     Ni1635   1.953   1_545  S
O1619      H1642   0.966   1_545  S
C1620      O1637   1.285       .  A
C1620      O1629   1.279       .  A
C1620      C1984   1.485       .  S
O1621      C1627   1.273       .  A
O1621     Ni1640   1.948       .  S
O1622      C1624   1.263       .  A
O1622     Ni1640   1.894       .  S
Ni1623     O1626   1.935       .  S
Ni1623     O1628   1.892       .  S
C1624      O1634   1.262       .  A
C1624      C1974   1.395       .  S
O1625      C1631   1.273       .  A
O1625     Ni1641   1.939       .  S
O1626      C1631   1.268       .  A
C1627      C1842   1.423       .  S
O1628      C1630   1.266       .  A
O1629     Ni1640   1.955       .  S
C1630      O1636   1.267       .  A
C1630      C1847   1.398       .  S
C1631      C1845   1.464       .  S
H1632      O1633   0.967   1_545  S
O1633     Ni1641   1.928   1_565  S
O1633     Ni1635   1.899       .  S
O1633     Ni1640   1.936       .  S
O1634     Ni1635   1.882       .  S
Ni1635     O1639   1.896   1_556  S
Ni1635     O1637   1.960       .  S
O1636     Ni1641   1.895       .  S
C1638      O1639   1.267   1_545  A
C1638      C1843   1.418       .  S
O1643      C1664   1.270       .  A
O1643     Ni1649   1.927       .  S
O1644      C1653   1.262       .  A
O1644     Ni1667   1.887   1_565  S
O1645     Ni1649   1.919       .  S
O1645     Ni1667   1.891       .  S
O1645     Ni1661   1.916   1_545  S
O1645      H1668   0.966       .  S
C1646      O1663   1.266       .  A
C1646      O1655   1.272       .  A
C1646      C1976   1.452       .  S
O1647      C1653   1.273       .  A
O1647     Ni1666   1.937       .  S
O1648      C1650   1.270       .  A
O1648     Ni1666   1.897       .  S
Ni1649     O1652   1.933       .  S
Ni1649     O1654   1.903       .  S
C1650      O1660   1.268       .  A
C1650      C1982   1.405       .  S
O1651      C1657   1.271       .  A
O1651     Ni1667   1.919       .  S
O1652      C1657   1.270       .  A
C1653      C1840   1.432       .  S
O1654      C1656   1.270       .  A
O1655     Ni1666   1.952       .  S
C1656      O1662   1.270       .  A
C1656      C1836   1.416       .  S
C1657      C1838   1.441       .  S
H1658      O1659   0.968       .  S
O1659     Ni1667   1.939   1_565  S
O1659     Ni1661   1.903       .  S
O1659     Ni1666   1.930       .  S
O1660     Ni1661   1.914       .  S
Ni1661     O1665   1.877       .  S
Ni1661     O1663   1.913       .  S
O1662     Ni1667   1.919       .  S
C1664      O1665   1.259   1_545  A
C1664      C1844   1.417       .  S
O1669      C1690   1.267       .  A
O1669     Ni1675   1.916       .  S
O1670      C1679   1.260   1_545  A
O1670     Ni1693   1.881       .  S
O1671     Ni1675   1.934       .  S
O1671     Ni1693   1.900       .  S
O1671     Ni1687   1.963   1_545  S
O1671      H1694   0.966   1_545  S
C1672      O1689   1.286       .  A
C1672      O1681   1.278       .  A
C1672      C1880   1.496       .  S
O1673      C1679   1.270       .  A
O1673     Ni1692   1.936       .  S
O1674      C1676   1.261       .  A
O1674     Ni1692   1.886       .  S
Ni1675     O1678   1.948       .  S
Ni1675     O1680   1.879       .  S
C1676      O1686   1.266       .  A
C1676      C1873   1.392       .  S
O1677      C1683   1.277       .  A
O1677     Ni1693   1.952       .  S
O1678      C1683   1.271       .  A
C1679      C1841   1.425       .  S
O1680      C1682   1.263       .  A
O1681     Ni1692   1.958       .  S
C1682      O1688   1.271       .  A
C1682      C1832   1.390       .  S
C1683      C1834   1.481       .  S
H1684      O1685   0.966   1_545  S
O1685     Ni1693   1.941   1_565  S
O1685     Ni1687   1.899       .  S
O1685     Ni1692   1.936       .  S
O1686     Ni1687   1.885       .  S
Ni1687     O1691   1.900       .  S
Ni1687     O1689   1.970       .  S
O1688     Ni1693   1.899       .  S
C1690      O1691   1.268   1_545  A
C1690      C1830   1.425       .  S
O1695      C1716   1.274       .  A
O1695     Ni1701   1.944       .  S
O1696      C1705   1.265       .  A
O1696     Ni1719   1.892   1_565  S
O1697     Ni1701   1.922       .  S
O1697     Ni1713   1.922   1_545  S
C1698      O1715   1.268       .  A
C1698      O1707   1.273       .  A
C1698      C1875   1.464       .  S
O1699      C1705   1.273       .  A
O1700      C1702   1.268       .  A
Ni1701     O1706   1.908       .  S
C1702      C1877   1.400   1_455  S
O1703      C1709   1.275       .  A
O1703     Ni1719   1.932       .  S
O1704      C1709   1.274       .  A
C1705      C1839   1.432       .  S
O1706      C1708   1.271       .  A
O1707     Ni1718   1.958       .  S
C1708      O1714   1.270       .  A
C1708      C1828   1.420       .  S
C1709      C1825   1.459       .  S
H1710      O1711   0.966       .  S
O1711     Ni1713   1.901       .  S
O1711     Ni1718   1.933       .  S
O1712     Ni1713   1.908       .  S
Ni1713     O1717   1.870   1_565  S
Ni1713     O1715   1.923       .  S
C1716      O1717   1.257       .  A
C1716      C1829   1.424       .  S
O1721      C1742   1.271       .  A
O1721     Ni1727   1.952       .  S
O1722      C1731   1.277       .  A
O1723     Ni1727   1.934       .  S
O1723     Ni1745   1.925       .  S
O1723     Ni1739   1.908       .  S
O1723      H1746   0.966       .  S
C1724      O1741   1.262       .  A
C1724      O1733   1.266       .  A
C1724      C1853   1.405       .  S
O1725      C1731   1.281       .  A
O1726      C1728   1.283       .  A
O1726     Ni1744   1.945       .  S
Ni1727     O1730   1.932       .  S
Ni1727     O1732   1.898       .  S
C1728      O1738   1.280       .  A
C1728      C1869   1.472       .  S
O1730      C1735   1.278       .  A
C1731      C1783   1.481       .  S
O1732      C1734   1.262       .  A
O1733     Ni1744   1.903       .  S
C1734      O1740   1.265       .  A
C1734      C1827   1.423       .  S
H1736      O1737   0.967       .  S
O1737     Ni1745   1.880       .  S
O1737     Ni1739   1.885       .  S
O1737     Ni1744   1.901       .  S
O1738     Ni1739   1.958       .  S
Ni1739     O1743   1.878       .  S
Ni1739     O1741   1.885       .  S
O1740     Ni1745   1.916       .  S
C1742      O1743   1.259       .  A
C1742      C1794   1.472       .  S
O1747      C1768   1.272       .  A
O1747     Ni1753   1.952       .  S
O1748      C1757   1.267       .  A
O1748     Ni1771   1.893       .  S
O1749     Ni1753   1.946       .  S
O1749     Ni1771   1.926       .  S
O1749     Ni1765   1.925       .  S
O1749      H1772   0.966       .  S
C1750      O1767   1.269       .  A
C1750      O1759   1.272       .  A
C1750      C1848   1.405       .  S
O1751      C1757   1.277       .  A
O1751     Ni1770   1.910       .  S
O1752      C1754   1.280       .  A
O1752     Ni1770   1.953       .  S
Ni1753     O1756   1.947       .  S
Ni1753     O1758   1.896       .  S
C1754      O1764   1.275       .  A
C1754      C1833   1.481       .  S
O1755      C1761   1.271       .  A
O1755     Ni1771   1.911       .  S
O1756      C1761   1.278       .  A
C1757      C1809   1.472       .  S
O1758      C1760   1.262       .  A
O1759     Ni1770   1.904       .  S
C1760      O1766   1.267       .  A
C1760      C1849   1.428       .  S
C1761      C1861   1.450       .  S
H1762      O1763   0.966       .  S
O1763     Ni1771   1.896       .  S
O1763     Ni1765   1.865       .  S
O1763     Ni1770   1.905       .  S
O1764     Ni1765   1.949       .  S
Ni1765     O1769   1.870       .  S
Ni1765     O1767   1.891       .  S
O1766     Ni1771   1.923       .  S
C1768      O1769   1.256       .  A
C1768      C1820   1.466       .  S
O1773      C1794   1.273       .  A
O1773     Ni1779   1.952       .  S
O1774      C1783   1.269       .  A
O1774     Ni1797   1.898       .  S
O1775     Ni1779   1.947       .  S
O1775     Ni1797   1.931       .  S
O1775     Ni1791   1.934       .  S
O1775      H1798   0.966       .  S
C1776      O1793   1.270       .  A
C1776      O1785   1.272       .  A
C1776      C1872   1.404       .  S
O1777      C1783   1.283       .  A
O1777     Ni1796   1.926       .  S
O1778      C1780   1.284       .  A
O1778     Ni1796   1.959       .  S
Ni1779     O1782   1.950       .  S
Ni1779     O1784   1.889       .  S
C1780      O1790   1.275       .  A
C1780      C1855   1.484       .  S
O1781      C1787   1.271       .  A
O1781     Ni1797   1.919       .  S
O1782      C1787   1.279       .  A
O1784      C1786   1.261       .  A
O1785     Ni1796   1.909       .  S
C1786      O1792   1.267       .  A
C1786      C1835   1.418       .  S
C1787      C1826   1.458       .  S
H1788      O1789   0.967       .  S
O1789     Ni1797   1.892       .  S
O1789     Ni1791   1.863       .  S
O1789     Ni1796   1.901       .  S
O1790     Ni1791   1.948       .  S
Ni1791     O1795   1.877       .  S
Ni1791     O1793   1.890       .  S
O1792     Ni1797   1.917       .  S
C1794      O1795   1.258       .  A
O1799      C1820   1.269       .  A
O1799     Ni1805   1.945       .  S
O1800      C1809   1.270       .  A
O1801     Ni1805   1.948       .  S
O1801     Ni1823   1.934       .  S
O1801     Ni1817   1.918       .  S
O1801      H1824   0.966       .  S
C1802      O1819   1.264       .  A
C1802      O1811   1.271       .  A
C1802      C1831   1.396       .  S
O1803      C1809   1.274       .  A
O1804      C1806   1.276       .  A
O1804     Ni1822   1.935       .  S
Ni1805     O1808   1.937       .  S
Ni1805     O1810   1.894       .  S
C1806      O1816   1.275       .  A
C1806      C1846   1.464       .  S
O1807      C1813   1.270       .  A
O1807     Ni1823   1.908       .  S
O1808      C1813   1.275       .  A
O1810      C1812   1.261       .  A
O1811     Ni1822   1.904       .  S
C1812      O1818   1.265       .  A
C1812      C1864   1.424       .  S
C1813      C1852   1.442       .  S
H1814      O1815   0.966       .  S
O1815     Ni1823   1.884       .  S
O1815     Ni1817   1.868       .  S
O1815     Ni1822   1.904       .  S
O1816     Ni1817   1.947       .  S
Ni1817     O1821   1.875       .  S
Ni1817     O1819   1.878       .  S
O1818     Ni1823   1.915       .  S
C1820      O1821   1.257       .  A
C1825      C1826   1.220       .  T
C1827      C1828   1.198       .  T
C1829      C1830   1.200       .  T
C1831      C1832   1.181       .  T
C1833      C1834   1.233       .  T
C1835      C1836   1.196       .  T
C1837      C1838   1.210       .  T
C1839      C1840   1.204       .  T
C1841      C1842   1.200       .  T
C1843      C1844   1.196       .  T
C1845      C1846   1.223       .  T
C1847      C1848   1.187       .  T
C1849      C1850   1.202       .  T
C1853      C1854   1.186       .  T
C1855      C1856   1.236       .  T
C1857      C1858   1.213       .  T
C1859      C1860   1.208       .  T
C1861      C1862   1.215       .  T
C1863      C1864   1.199       .  T
C1865      C1866   1.215       .  T
C1867      C1868   1.211       .  T
C1869      C1870   1.229       .  T
C1871      C1872   1.187       .  T
C1873      C1874   1.183       .  T
C1875      C1876   1.223       .  T
C1877      C1878   1.187       .  T
C1881      C1882   1.210       .  T
C1883      C1884   1.195       .  T
C1885      C1886   1.214       .  T
C1887      C1888   1.213       .  T
C1889      C1890   1.202       .  T
C1891      C1892   1.212       .  T
C1893      C1894   1.221       .  T
C1895      C1896   1.209       .  T
C1897      C1898   1.192       .  T
C1899      C1900   1.231       .  T
C1901      C1902   1.190       .  T
C1905      C1906   1.205       .  T
C1907      C1908   1.202   1_455  T
C1909      C1910   1.210       .  T
C1911      C1912   1.213       .  T
C1913      C1914   1.203   1_554  T
C1915      C1916   1.226       .  T
C1917      C1918   1.192       .  T
C1919      C1920   1.209       .  T
C1921      C1922   1.186       .  T
C1923      C1924   1.218       .  T
C1925      C1926   1.187       .  T
C1927      C1928   1.217       .  T
C1929      C1930   1.193       .  T
C1931      C1932   1.219       .  T
C1933      C1934   1.186       .  T
C1935      C1936   1.218       .  T
C1937      C1938   1.203       .  T
C1939      C1940   1.204       .  T
C1941      C1942   1.207       .  T
C1943      C1944   1.205   1_655  T
C1945      C1946   1.206       .  T
C1947      C1948   1.201       .  T
C1949      C1950   1.214       .  T
C1951      C1952   1.198       .  T
C1953      C1954   1.212       .  T
C1955      C1956   1.192   1_655  T
C1957      C1958   1.199       .  T
C1959      C1960   1.200       .  T
C1961      C1962   1.187       .  T
C1965      C1966   1.232       .  T
C1967      C1968   1.185       .  T
C1969      C1970   1.196       .  T
C1971      C1972   1.200       .  T
C1973      C1974   1.186       .  T
C1975      C1976   1.216       .  T
C1977      C1978   1.206       .  T
C1979      C1980   1.218       .  T
C1981      C1982   1.189       .  T
C1983      C1984   1.236       .  T
