geometry optimzed in LAMMPS
_audit_creation_date              2020-11-30 
_audit_creation_method            'lammps2cif' 
_symmetry_space_group_name_H-M    'P1' 
_symmetry_Int_Tables_number       1 
_symmetry_cell_setting            triclinic 
loop_ 
_symmetry_equiv_pos_as_xyz 
  x,y,z 
_cell_length_a                    26.53548394 
_cell_length_b                    60.08184593662872 
_cell_length_c                    42.30414730775408 
_cell_angle_alpha                 90.77055699401559 
_cell_angle_beta                  89.32086200089331 
_cell_angle_gamma                 90.13490685560126 
loop_ 
_atom_site_label 
_atom_site_type_symbol 
_atom_site_fract_x 
_atom_site_fract_y 
_atom_site_fract_z 
_atom_site_charge 
N1          N  0.23973086  0.37064927  0.21392531    -0.27200
N2          N  0.19532629  0.36128628  0.20926920    -0.35100
C3          C  0.16399765  0.37628772  0.19691168     0.01100
C4          C  0.18988559  0.39610127  0.19320229     0.07100
C5          C  0.23775954  0.39194370  0.20455415    -0.06000
H6          H  0.12390832  0.37367584  0.19433254     0.07800
H7          H  0.26748647  0.40403915  0.20822270     0.09000
Cu8        Cu  0.17554583  0.33061062  0.22695146     0.44200
Cu9        Cu  0.29705473  0.35482706  0.23797813     0.42000
Cu10       Cu  0.26266559  0.30408476  0.27995066     0.43900
N11         N  0.15716008  0.30338689  0.25400981    -0.34600
N12         N  0.18786210  0.29422524  0.27447562    -0.28900
C13         C  0.16304782  0.27776521  0.28936037    -0.05000
C14         C  0.11460521  0.27650149  0.27748486     0.07200
C15         C  0.11236294  0.29293689  0.25505860     0.01000
H16         H  0.17947675  0.26716854  0.30694791     0.08700
H17         H  0.08041300  0.29724171  0.24075755     0.07800
N18         N  0.33584548  0.31666670  0.27715915    -0.36100
N19         N  0.34776402  0.33518985  0.26219166    -0.28300
C20         C  0.39795695  0.33808430  0.26304746    -0.03500
C21         C  0.41877375  0.32070206  0.27945965     0.05100
C22         C  0.37843881  0.30723424  0.28770228     0.03200
H23         H  0.41809676  0.35127227  0.25114799     0.08300
H24         H  0.38010187  0.29139859  0.29950428     0.07100
N25         N  0.25127270  0.65285841  0.21090117    -0.27200
N26         N  0.20450631  0.66010417  0.20844755    -0.35100
C27         C  0.17431320  0.64284769  0.20135194     0.01100
C28         C  0.20330942  0.62380468  0.19958757     0.07100
C29         C  0.25209553  0.63073953  0.20540512    -0.06000
H30         H  0.13381293  0.64391917  0.19893652     0.07800
H31         H  0.28558710  0.62054251  0.20604137     0.09000
Cu32       Cu  0.18232905  0.69240905  0.21879324     0.44200
Cu33       Cu  0.31038215  0.67318766  0.22449862     0.42000
Cu34       Cu  0.27624404  0.72763231  0.25590166     0.43900
N35         N  0.16658546  0.72329073  0.23874358    -0.34600
N36         N  0.20034681  0.73554563  0.25380640    -0.28900
C37         C  0.17765556  0.75380220  0.26583982    -0.05000
C38         C  0.12740324  0.75310421  0.25761160     0.07200
C39         C  0.12168942  0.73362422  0.24029726     0.01000
H40         H  0.19670133  0.76696078  0.27872083     0.08700
H41         H  0.08738452  0.72726935  0.22991503     0.07800
N42         N  0.34982843  0.71621705  0.25255778    -0.36100
N43         N  0.36189661  0.69631686  0.24109308    -0.28300
C44         C  0.41223102  0.69413621  0.24101839    -0.03500
C45         C  0.43279417  0.71361372  0.25278123     0.05100
C46         C  0.39236241  0.72729147  0.25997112     0.03200
H47         H  0.43243753  0.67968560  0.23215867     0.08300
H48         H  0.39377022  0.74420961  0.26899111     0.07100
N49         N  0.82563399  0.66487102  0.19437194    -0.27200
N50         N  0.87277831  0.67161623  0.19137479    -0.35100
C51         C  0.90162878  0.65408503  0.18296667     0.01100
C52         C  0.87087010  0.63550031  0.18036247     0.07100
C53         C  0.82303818  0.64293659  0.18810269    -0.06000
H54         H  0.94244258  0.65441282  0.18171287     0.07800
H55         H  0.78956724  0.63283303  0.19133420     0.09000
Cu56       Cu  0.89507375  0.70318606  0.20591311     0.44200
Cu57       Cu  0.76989065  0.68500737  0.21284333     0.42000
Cu58       Cu  0.80277629  0.73773326  0.25062210     0.43900
N59         N  0.91196720  0.73266279  0.22962436    -0.34600
N60         N  0.87985932  0.74476772  0.24675006    -0.28900
C61         C  0.90542501  0.76157571  0.26073844    -0.05000
C62         C  0.95574095  0.75998763  0.25173822     0.07200
C63         C  0.95828012  0.74153529  0.23197676     0.01000
H64         H  0.88858570  0.77406389  0.27617045     0.08700
H65         H  0.99161895  0.73456896  0.22077162     0.07800
N66         N  0.72950386  0.72488643  0.24932090    -0.36100
N67         N  0.71889986  0.70561005  0.23542768    -0.28300
C68         C  0.66926313  0.70177576  0.23743794    -0.03500
C69         C  0.64714158  0.71932051  0.25349184     0.05100
C70         C  0.68613997  0.73389676  0.26052585     0.03200
H71         H  0.65037217  0.68752607  0.22702955     0.08300
H72         H  0.68304017  0.75006728  0.27192228     0.07100
O73         O  0.96282795  0.48996757  0.15854843    -0.72900
O74         O  0.07567546  0.53436582  0.15830281    -0.73900
O75         O  0.06843765  0.48693626  0.15994181    -0.62500
O76         O  0.96986817  0.53769961  0.15703501    -0.70900
O77         O  0.96783924  0.53901877  0.20921490    -0.70500
O78         O  0.06562210  0.48861030  0.21214661    -0.61700
O79         O  0.07293153  0.53596295  0.21053897    -0.74200
O80         O  0.96056384  0.49157731  0.21086218    -0.73000
Cu81       Cu  0.01916707  0.51220457  0.15661467     1.04600
Cu82       Cu  0.01654234  0.51383972  0.21244581     1.04300
C83         C  0.94556305  0.48293560  0.18492513     0.93300
C84         C  0.09094649  0.54286122  0.18428596     0.92400
C85         C  0.08197369  0.47943576  0.18668588     0.84600
C86         C  0.95469968  0.54701084  0.18280876     0.90900
N87         N  0.81476981  0.36794077  0.21736404    -0.27200
N88         N  0.86206875  0.36127968  0.21557153    -0.35100
C89         C  0.89082756  0.37813790  0.20500839     0.01100
C90         C  0.85980778  0.39615845  0.19940886     0.07100
C91         C  0.81194179  0.38916595  0.20794657    -0.06000
H92         H  0.93143219  0.37773170  0.20365399     0.07800
H93         H  0.77790818  0.39904795  0.20844460     0.09000
Cu94       Cu  0.88460396  0.33034624  0.23119428     0.44200
Cu95       Cu  0.75785424  0.34825250  0.23528407     0.42000
Cu96       Cu  0.78941506  0.29531656  0.27068079     0.43900
N97         N  0.90011090  0.30056041  0.25322568    -0.34600
N98         N  0.86671602  0.28838398  0.26884764    -0.28900
C99         C  0.89097071  0.27131029  0.28231216    -0.05000
C100        C  0.94172452  0.27273690  0.27438870     0.07200
C101        C  0.94600143  0.29138399  0.25584364     0.01000
H102        H  0.87294690  0.25869412  0.29655162     0.08700
H103        H  0.98017762  0.29823537  0.24578699     0.07800
N104        N  0.71562057  0.30706979  0.26645884    -0.36100
N105        N  0.70535844  0.32646590  0.25360665    -0.28300
C106        C  0.65549075  0.32992228  0.25470232    -0.03500
C107        C  0.63274519  0.31182439  0.26859740     0.05100
C108        C  0.67188245  0.29759920  0.27600863     0.03200
H109        H  0.63710099  0.34471422  0.24630002     0.08300
H110        H  0.66898557  0.28191498  0.28813241     0.07100
C111        C  0.02990198  0.23196696  0.31640516     0.86500
C112        C  0.98298545  0.24663312  0.31165035    -0.53700
C113        C  0.98311606  0.25790663  0.28384471     0.09500
C114        C  0.03101731  0.25425717  0.26366148     0.20400
C115        C  0.03458288  0.21733013  0.28645413    -0.54400
C116        C  0.03507653  0.22896547  0.25902842     0.09600
C117        C  0.07383416  0.24894670  0.31334642    -0.54000
C118        C  0.07465410  0.26031880  0.28566705     0.10100
H119        H  0.95264737  0.24820774  0.32894175     0.14600
H120        H  0.03128951  0.26333899  0.24098620     0.00400
H121        H  0.03671781  0.19928324  0.28691981     0.15000
H122        H  0.10100862  0.25262316  0.33159244     0.14700
C123        C  0.04746879  0.80138795  0.29193244     0.86500
C124        C  0.08922733  0.78334647  0.29074664    -0.53700
C125        C  0.08917985  0.77035463  0.26409317     0.09500
C126        C  0.04719261  0.77602396  0.24107850     0.20400
C127        C  0.05456900  0.81407085  0.26094898    -0.54400
C128        C  0.05455951  0.80083952  0.23454146     0.09600
C129        C  0.99883305  0.78745408  0.28777738    -0.54000
C130        C  0.99834933  0.77456206  0.26086106     0.10100
H131        H  0.11575737  0.78033903  0.30950077     0.14600
H132        H  0.04743835  0.76564668  0.21917282     0.00400
H133        H  0.05907354  0.83202633  0.25997669     0.15000
H134        H  0.96797152  0.78747980  0.30480738     0.14700
N135        N  0.02715502  0.15963402  0.47289393    -0.27200
N136        N  0.02915260  0.17881724  0.48855179    -0.35100
C137        C  0.02954772  0.19550621  0.46761019     0.01100
C138        C  0.02783889  0.18623544  0.43752576     0.07100
C139        C  0.02600518  0.16354365  0.44173791    -0.06000
H140        H  0.03156920  0.21301335  0.47380009     0.07800
H141        H  0.02530724  0.15077183  0.42346132     0.09000
Cu142      Cu  0.04239606  0.18221913  0.03549396     0.44200
Cu143      Cu  0.02976201  0.12881692  0.49376103     0.42000
Cu144      Cu  0.04033306  0.12934541  0.07661217     0.43900
N145        N  0.04135036  0.17945574  0.08453033    -0.34600
N146        N  0.04083619  0.16014974  0.09922804    -0.28900
C147        C  0.03944945  0.16387953  0.13062580    -0.05000
C148        C  0.03866011  0.18656940  0.13595620     0.07200
C149        C  0.04016849  0.19602214  0.10632093     0.01000
H150        H  0.03845759  0.15102251  0.14824057     0.08700
H151        H  0.04007456  0.21356750  0.10100189     0.07800
N152        N  0.03731730  0.10048860  0.04931085    -0.36100
N153        N  0.03393651  0.10060611  0.01817746    -0.28300
C154        C  0.04091620  0.07901061  0.50763667    -0.03500
C155        C  0.03594510  0.06543400  0.03274848     0.05100
C156        C  0.03907256  0.07927730  0.05903876     0.03200
H157        H  0.03809820  0.07438710  0.48291098     0.08300
H158        H  0.04279713  0.07430366  0.08337529     0.07100
N159        N  0.05814842  0.87684236  0.44928525    -0.27200
N160        N  0.05987830  0.85725910  0.46320762    -0.35100
C161        C  0.05779777  0.84112868  0.44082469     0.01100
C162        C  0.05455023  0.85107162  0.41159443     0.07100
C163        C  0.05464555  0.87368852  0.41782388    -0.06000
H164        H  0.05900710  0.82348747  0.44544808     0.07800
H165        H  0.05345862  0.88687779  0.40072711     0.09000
Cu166      Cu  0.06855384  0.85377450  0.01510080     0.44200
Cu167      Cu  0.06226981  0.90718334  0.47307344     0.42000
Cu168      Cu  0.06942307  0.90424140  0.06330217     0.43900
N169        N  0.06925220  0.85394129  0.06420046    -0.34600
N170        N  0.07013175  0.87238625  0.08163909    -0.28900
C171        C  0.06907467  0.86695238  0.11235993    -0.05000
C172        C  0.06708075  0.84405587  0.11431186     0.07200
C173        C  0.06743999  0.83626495  0.08342845     0.01000
H174        H  0.06852819  0.87881625  0.13184479     0.08700
H175        H  0.06565266  0.81908310  0.07551770     0.07800
N176        N  0.06399356  0.93419111  0.03972109    -0.36100
N177        N  0.06056951  0.93554112  0.00864482    -0.28300
C178        C  0.06747465  0.95661115  0.49369347    -0.03500
C179        C  0.05759527  0.96986575  0.02818104     0.05100
C180        C  0.06206737  0.95483054  0.05245682     0.03200
H181        H  0.06469082  0.96222891  0.46961365     0.08300
H182        H  0.06291129  0.95854662  0.07753281     0.07100
C183        C  0.08567727  0.03140019  0.04102400    -0.05700
C184        C  0.03999190  0.04092473  0.03194222     0.00200
C185        C  0.99958267  0.02706374  0.02238110    -0.08400
C186        C  0.00661576  0.00384544  0.02196026    -0.05800
C187        C  0.05251442  0.99431986  0.03070247     0.00200
C188        C  0.09297890  0.00820871  0.04012025    -0.08300
C189        C  0.14417251  0.99861816  0.04783564     0.62100
H190        H  0.11602910  0.04238017  0.04821260     0.12800
H191        H  0.97635867  0.99288130  0.01457166     0.12800
C192        C  0.94918563  0.03676470  0.01309399     0.62300
F193        F  0.17944472  0.01513613  0.05370194    -0.22800
F194        F  0.16155928  0.98577721  0.02261981    -0.20200
F195        F  0.14037712  0.98556499  0.07439837    -0.19900
F196        F  0.94414224  0.04869719  0.54169363    -0.19900
F197        F  0.93111336  0.05058836  0.03704333    -0.20200
F198        F  0.91353916  0.02033859  0.00764710    -0.22900
C199        C  0.00923912  0.83965267  0.36311049    -0.05700
C200        C  0.05409168  0.84000010  0.38018046     0.00200
C201        C  0.09830305  0.83114593  0.36622883    -0.08400
C202        C  0.09490290  0.82010709  0.33684394    -0.05800
C203        C  0.04859633  0.81710641  0.32110714     0.00200
C204        C  0.00617519  0.82948986  0.33293763    -0.08300
C205        C  0.95755946  0.83356523  0.31515907     0.62100
H206        H  0.97639695  0.84792367  0.37321925     0.12800
H207        H  0.12917262  0.81393166  0.32598239     0.12800
C208        C  0.14896710  0.83353011  0.38229127     0.62300
F209        F  0.91904144  0.82121836  0.32859540    -0.22800
F210        F  0.96088318  0.82856331  0.28330293    -0.20200
F211        F  0.94501148  0.85588377  0.31760355    -0.19900
F212        F  0.14840544  0.82185006  0.41021350    -0.19900
F213        F  0.15860668  0.85575073  0.38879751    -0.20200
F214        F  0.18809654  0.82541539  0.36354826    -0.22900
C215        C  0.01507112  0.81399899  0.18587590    -0.05700
C216        C  0.05942391  0.80994945  0.20242049     0.00200
C217        C  0.10674147  0.81554480  0.18890052    -0.08400
C218        C  0.10784286  0.82631805  0.15958049    -0.05800
C219        C  0.06334106  0.83103519  0.14350752     0.00200
C220        C  0.01623213  0.82447297  0.15636025    -0.08300
C221        C  0.96756532  0.82889937  0.13911931     0.62100
H222        H  0.97942316  0.80929828  0.19665100     0.12800
H223        H  0.14343890  0.83130446  0.14902244     0.12800
C224        C  0.15562185  0.80973237  0.20508157     0.62300
F225        F  0.92585218  0.82147877  0.15592539    -0.22800
F226        F  0.96854060  0.81801431  0.11011363    -0.20200
F227        F  0.96219082  0.85150678  0.13450328    -0.19900
F228        F  0.15884730  0.78690103  0.20792451    -0.19900
F229        F  0.15718399  0.81954746  0.23479532    -0.20200
F230        F  0.19735965  0.81689003  0.18806977    -0.22900
C231        C  0.07360061  0.21601574  0.36424358    -0.05700
C232        C  0.02869718  0.21810092  0.34681443     0.00200
C233        C  0.98482041  0.20669211  0.35836521    -0.08400
C234        C  0.98564161  0.19781489  0.38896549    -0.05800
C235        C  0.02940957  0.19768640  0.40696472     0.00200
C236        C  0.07468015  0.20608325  0.39409236    -0.08300
C237        C  0.12418825  0.20390469  0.41147339     0.62100
H238        H  0.10885401  0.22148884  0.35411899     0.12800
H239        H  0.95191881  0.19007648  0.39859918     0.12800
C240        C  0.93640758  0.20247715  0.34016878     0.62300
F241        F  0.16435319  0.21260433  0.39444920    -0.22800
F242        F  0.13400226  0.18167201  0.41677215    -0.20200
F243        F  0.12130725  0.21516718  0.44013747    -0.19900
F244        F  0.94069827  0.20607593  0.30816210    -0.19900
F245        F  0.89854234  0.21586155  0.35258918    -0.20200
F246        F  0.92204703  0.18045408  0.34354902    -0.22900
C247        C  0.08221881  0.20075145  0.18333935    -0.05700
C248        C  0.03696642  0.19800513  0.16699602     0.00200
C249        C  0.99103243  0.20512383  0.18104179    -0.08400
C250        C  0.99207223  0.21537745  0.21111982    -0.05800
C251        C  0.03731462  0.21811033  0.22748257     0.00200
C252        C  0.08320832  0.21068353  0.21363853    -0.08300
C253        C  0.13285814  0.21341246  0.23070463     0.62100
H254        H  0.11676985  0.19490943  0.17216901     0.12800
H255        H  0.95746691  0.22114268  0.22231959     0.12800
C256        C  0.94128020  0.20146200  0.16445347     0.62300
F257        F  0.17298492  0.20518038  0.21294310    -0.22800
F258        F  0.13112948  0.20208798  0.25892795    -0.20200
F259        F  0.14176092  0.23571036  0.23678735    -0.19900
F260        F  0.93435341  0.17898045  0.15844979    -0.19900
F261        F  0.94148021  0.21273875  0.13618113    -0.20200
F262        F  0.90084082  0.20898681  0.18257107    -0.22900
C263        C  0.92335272  0.44628996  0.16237907    -0.05700
C264        C  0.91338498  0.46276003  0.18552034     0.00200
C265        C  0.87913692  0.45804867  0.21056108    -0.08400
C266        C  0.86093880  0.43616547  0.21356078    -0.05800
C267        C  0.87553097  0.41918014  0.19228931     0.00200
C268        C  0.90491486  0.42448263  0.16529548    -0.08300
C269        C  0.91715796  0.40729424  0.13972113     0.62100
H270        H  0.94874957  0.45013209  0.14299861     0.12800
H271        H  0.83702304  0.43194017  0.23349783     0.12800
C272        C  0.86177256  0.47580712  0.23411264     0.62300
F273        F  0.93748855  0.41704961  0.11296099    -0.22800
F274        F  0.87375408  0.39613556  0.13095113    -0.20200
F275        F  0.95177879  0.39221761  0.15072415    -0.19900
F276        F  0.85005881  0.49513546  0.21839516    -0.19900
F277        F  0.89922326  0.48016720  0.25578238    -0.20200
F278        F  0.81909790  0.46912093  0.25061208    -0.22900
C279        C  0.92796108  0.58048474  0.15363164    -0.05700
C280        C  0.92560806  0.56824355  0.18183305     0.00200
C281        C  0.89974394  0.57763600  0.20856830    -0.08400
C282        C  0.88121752  0.59949072  0.20663222    -0.05800
C283        C  0.88743249  0.61209021  0.17927472     0.00200
C284        C  0.90945049  0.60234302  0.15196442    -0.08300
C285        C  0.91313502  0.61505388  0.12126653     0.62100
H286        H  0.94648951  0.57321331  0.13304839     0.12800
H287        H  0.86320514  0.60731536  0.22703077     0.12800
C288        C  0.89141599  0.56507600  0.23917062     0.62300
F289        F  0.93144901  0.60188225  0.09662956    -0.22800
F290        F  0.94516090  0.63305483  0.12492323    -0.20200
F291        F  0.86588531  0.62259421  0.11307994    -0.19900
F292        F  0.93635039  0.56326242  0.25515071    -0.19900
F293        F  0.87222839  0.54410810  0.23264023    -0.20200
F294        F  0.85738998  0.57586292  0.25913287    -0.22900
C295        C  0.51223274  0.71525108  0.28255057    -0.05700
C296        C  0.48682894  0.71901142  0.25424591     0.00200
C297        C  0.51395197  0.72580432  0.22706382    -0.08400
C298        C  0.56657345  0.72769392  0.22872863    -0.05800
C299        C  0.59235637  0.72262956  0.25641418     0.00200
C300        C  0.56512831  0.71674036  0.28400867    -0.08300
C301        C  0.59219358  0.71117963  0.31426008     0.62100
H302        H  0.49050728  0.71007872  0.30302378     0.12800
H303        H  0.58840914  0.73185585  0.20781576     0.12800
C304        C  0.48750505  0.73016130  0.19614636     0.62300
F305        F  0.55879658  0.70582449  0.33839689    -0.22800
F306        F  0.62044913  0.72931989  0.32401751    -0.20200
F307        F  0.62382256  0.69320030  0.30905259    -0.19900
F308        F  0.45029200  0.74596499  0.20092900    -0.19900
F309        F  0.46594075  0.71068698  0.18489606    -0.20200
F310        F  0.52050736  0.73793241  0.17320800    -0.22900
C311        C  0.15835676  0.59728645  0.16557462    -0.05700
C312        C  0.18390250  0.60110100  0.19387388     0.00200
C313        C  0.18364719  0.58462362  0.21745004    -0.08400
C314        C  0.15607284  0.56494590  0.21206098    -0.05800
C315        C  0.12754012  0.56165011  0.18455160     0.00200
C316        C  0.12961565  0.57792997  0.16040717    -0.08300
C317        C  0.09935594  0.57589971  0.13019159     0.62100
H318        H  0.15915975  0.61028890  0.14809807     0.12800
H319        H  0.15454390  0.55238504  0.23015213     0.12800
C320        C  0.20928355  0.58840688  0.24899567     0.62300
F321        F  0.04860617  0.57414284  0.13754959    -0.22800
F322        F  0.11485627  0.55736887  0.11297532    -0.20200
F323        F  0.10550700  0.59424096  0.11104678    -0.19900
F324        F  0.19009805  0.60735761  0.26360229    -0.19900
F325        F  0.26057944  0.59090924  0.24434378    -0.20200
F326        F  0.20182371  0.57074349  0.26922860    -0.22900
C327        C  0.49327821  0.29847997  0.26308253    -0.05700
C328        C  0.47316881  0.31582841  0.28182934     0.00200
C329        C  0.50574308  0.32952061  0.29985248    -0.08400
C330        C  0.55803169  0.32641693  0.29668500    -0.05800
C331        C  0.57835393  0.31018949  0.27613373     0.00200
C332        C  0.54576882  0.29554146  0.25962551    -0.08300
C333        C  0.56639779  0.27785213  0.23709488     0.62100
H334        H  0.46754948  0.28810623  0.24968418     0.12800
H335        H  0.58370866  0.33743567  0.30907742     0.12800
C336        C  0.48533918  0.34751949  0.32197717     0.62300
F337        F  0.52827712  0.26564117  0.22297448    -0.22800
F338        F  0.59647556  0.26329784  0.25340291    -0.20200
F339        F  0.59471605  0.28776525  0.21348112    -0.19900
F340        F  0.45015654  0.33842085  0.34246930    -0.19900
F341        F  0.46281278  0.36405944  0.30474651    -0.20200
F342        F  0.52308636  0.35718949  0.33987796    -0.22900
C343        C  0.17037785  0.43354817  0.21431378    -0.05700
C344        C  0.16646708  0.41819775  0.18924149     0.00200
C345        C  0.13849641  0.42378010  0.16223352    -0.08400
C346        C  0.11310995  0.44431398  0.16202535    -0.05800
C347        C  0.11446212  0.45926496  0.18794008     0.00200
C348        C  0.14472042  0.45400245  0.21437554    -0.08300
C349        C  0.15006773  0.46952541  0.24282343     0.62100
H350        H  0.19212404  0.42889377  0.23467391     0.12800
H351        H  0.09025571  0.44841121  0.14190657     0.12800
C352        C  0.13571963  0.40826487  0.13365715     0.62300
F353        F  0.18767288  0.46263262  0.26286618    -0.22800
F354        F  0.10541255  0.47004763  0.26000995    -0.20200
F355        F  0.16231168  0.49073998  0.23294034    -0.19900
F356        F  0.10764238  0.38961334  0.14101260    -0.19900
F357        F  0.18375145  0.40182744  0.12441633    -0.20200
F358        F  0.11337767  0.41841926  0.10820153    -0.22900
N359        N  0.24941286  0.37353052  0.71162355    -0.27200
N360        N  0.20304019  0.36575743  0.70887949    -0.35100
C361        C  0.17343037  0.38186857  0.69767215     0.01100
C362        C  0.20264301  0.40062967  0.69270494     0.07100
C363        C  0.25052281  0.39481422  0.70219456    -0.06000
H364        H  0.13290508  0.38063334  0.69616035     0.07800
H365        H  0.28294161  0.40568801  0.70406205     0.09000
Cu366      Cu  0.17980813  0.33526964  0.72605787     0.44200
Cu367      Cu  0.30684144  0.35590941  0.73243433     0.42000
Cu368      Cu  0.27087511  0.30548623  0.77290182     0.43900
N369        N  0.16246517  0.30716257  0.75182414    -0.34600
N370        N  0.19505447  0.29692520  0.76999588    -0.28900
C371        C  0.17138736  0.28011831  0.78474071    -0.05000
C372        C  0.12165619  0.27965818  0.77519567     0.07200
C373        C  0.11738396  0.29697242  0.75419650     0.01000
H374        H  0.18947826  0.26868938  0.80053649     0.08700
H375        H  0.08408758  0.30194096  0.74175768     0.07800
N376        N  0.34476005  0.31694540  0.76968924    -0.36100
N377        N  0.35737167  0.33548037  0.75500910    -0.28300
C378        C  0.40752465  0.33826299  0.75640000    -0.03500
C379        C  0.42747531  0.32072394  0.77282046     0.05100
C380        C  0.38684266  0.30735460  0.78068544     0.03200
H381        H  0.42807462  0.35185453  0.74575038     0.08300
H382        H  0.38781511  0.29176474  0.79315436     0.07100
N383        N  0.26925499  0.65883450  0.70624329    -0.27200
N384        N  0.22218782  0.66588682  0.70486523    -0.35100
C385        C  0.19207219  0.64864672  0.69760874     0.01100
C386        C  0.22130729  0.62974768  0.69456290     0.07100
C387        C  0.27026161  0.63680256  0.69987009    -0.06000
H388        H  0.15142781  0.64959472  0.69608450     0.07800
H389        H  0.30399371  0.62674469  0.69958243     0.09000
Cu390      Cu  0.19909308  0.69778712  0.71676583     0.44200
Cu391      Cu  0.32856423  0.67940878  0.71940866     0.42000
Cu392      Cu  0.29214704  0.73317085  0.75318752     0.43900
N393        N  0.18214572  0.72828763  0.73740908    -0.34600
N394        N  0.21581995  0.74064739  0.75235776    -0.28900
C395        C  0.19277764  0.75871934  0.76470723    -0.05000
C396        C  0.14237609  0.75780258  0.75676125     0.07200
C397        C  0.13694845  0.73835709  0.73933234     0.01000
H398        H  0.21166916  0.77193266  0.77757334     0.08700
H399        H  0.10265176  0.73186375  0.72906817     0.07800
N400        N  0.36636330  0.72277101  0.74776465    -0.36100
N401        N  0.37936057  0.70323770  0.73538127    -0.28300
C402        C  0.42982908  0.70148349  0.73544782    -0.03500
C403        C  0.44946471  0.72086931  0.74817287     0.05100
C404        C  0.40835484  0.73398583  0.75595539     0.03200
H405        H  0.45069322  0.68705404  0.72716057     0.08300
H406        H  0.40885203  0.75031398  0.76704278     0.07100
N407        N  0.83983019  0.66650568  0.71098592    -0.27200
N408        N  0.88541843  0.67376346  0.70372584    -0.35100
C409        C  0.91343688  0.65649190  0.69333706     0.01100
C410        C  0.88353241  0.63755832  0.69356337     0.07100
C411        C  0.83729458  0.64451534  0.70525599    -0.06000
H412        H  0.95353493  0.65738976  0.68841369     0.07800
H413        H  0.80506140  0.63414166  0.71084216     0.09000
Cu414      Cu  0.90773236  0.70615491  0.71322231     0.44200
Cu415      Cu  0.78611135  0.68642855  0.73211078     0.42000
Cu416      Cu  0.81614822  0.74353550  0.75308108     0.43900
N417        N  0.92510298  0.73702506  0.73247542    -0.34600
N418        N  0.89313525  0.75021491  0.74797401    -0.28900
C419        C  0.91913094  0.76738925  0.76062215    -0.05000
C420        C  0.96954697  0.76487009  0.75242782     0.07200
C421        C  0.97176701  0.74557712  0.73443930     0.01000
H422        H  0.90265134  0.78056181  0.77500932     0.08700
H423        H  0.00523178  0.73766982  0.72472344     0.07800
N424        N  0.74414767  0.72972770  0.75767450    -0.36100
N425        N  0.73497798  0.70851443  0.75129423    -0.28300
C426        C  0.68580843  0.70431789  0.75554894    -0.03500
C427        C  0.66239005  0.72371342  0.76516050     0.05100
C428        C  0.70023319  0.73968961  0.76575512     0.03200
H429        H  0.66775693  0.68865610  0.74967104     0.08300
H430        H  0.69576774  0.75734746  0.77023851     0.07100
O431        O  0.98223857  0.49324303  0.66187778    -0.72900
O432        O  0.08979766  0.54026245  0.65702693    -0.73900
O433        O  0.08790646  0.49275236  0.65873843    -0.62500
O434        O  0.98361075  0.54114568  0.66055299    -0.70900
O435        O  0.98764436  0.54248254  0.71273546    -0.70500
O436        O  0.08983004  0.49405813  0.71101370    -0.61700
O437        O  0.09293636  0.54138547  0.70923401    -0.74200
O438        O  0.98436515  0.49490386  0.71423809    -0.73000
Cu439      Cu  0.03564300  0.51682711  0.65770351     1.04600
Cu440      Cu  0.03870903  0.51826223  0.71357031     1.04300
C441        C  0.96780542  0.48603094  0.68879580     0.93300
C442        C  0.10755272  0.54872166  0.68239998     0.92400
C443        C  0.10444709  0.48536684  0.68484308     0.84600
C444        C  0.97055160  0.55008440  0.68701934     0.90900
N445        N  0.82535441  0.37408716  0.72648962    -0.27200
N446        N  0.87176842  0.36641638  0.72373134    -0.35100
C447        C  0.90163935  0.38242765  0.71189500     0.01100
C448        C  0.87243398  0.40103055  0.70626760     0.07100
C449        C  0.82426614  0.39518042  0.71621659    -0.06000
H450        H  0.94196541  0.38091465  0.70884930     0.07800
H451        H  0.79116351  0.40567355  0.71674830     0.09000
Cu452      Cu  0.89234888  0.33508767  0.73857852     0.44200
Cu453      Cu  0.76762426  0.35541683  0.74609374     0.42000
Cu454      Cu  0.79900141  0.30117735  0.77980208     0.43900
N455        N  0.90823561  0.30488515  0.75913929    -0.34600
N456        N  0.87555615  0.29297467  0.77568040    -0.28900
C457        C  0.89981445  0.27527484  0.78752402    -0.05000
C458        C  0.94977177  0.27601797  0.77744034     0.07200
C459        C  0.95357143  0.29496742  0.75947299     0.01000
H460        H  0.88229177  0.26267121  0.80201547     0.08700
H461        H  0.98701584  0.30146584  0.74823248     0.07800
N462        N  0.72551394  0.31345683  0.77585416    -0.36100
N463        N  0.71524267  0.33322030  0.76406592    -0.28300
C464        C  0.66513944  0.33616535  0.76395715    -0.03500
C465        C  0.64241861  0.31736359  0.77586656     0.05100
C466        C  0.68164350  0.30324093  0.78333517     0.03200
H467        H  0.64650410  0.35076402  0.75512094     0.08300
H468        H  0.67857822  0.28679516  0.79324211     0.07100
C469        C  0.04072243  0.23432800  0.81532681     0.86500
C470        C  0.99315891  0.24883632  0.81214104    -0.53700
C471        C  0.99118721  0.26051068  0.78471341     0.09500
C472        C  0.03766395  0.25715361  0.76305600     0.20400
C473        C  0.04399155  0.22005198  0.78504309    -0.54400
C474        C  0.04194507  0.23186135  0.75787088     0.09600
C475        C  0.08409714  0.25150748  0.81142025    -0.54000
C476        C  0.08263384  0.26320149  0.78399683     0.10100
H477        H  0.96409911  0.25009082  0.83033419     0.14600
H478        H  0.03624436  0.26647691  0.74060560     0.00400
H479        H  0.04701818  0.20201977  0.78510270     0.15000
H480        H  0.11256922  0.25515144  0.82884362     0.14700
C481        C  0.06239837  0.80546883  0.79278404     0.86500
C482        C  0.10422173  0.78747418  0.79079079    -0.53700
C483        C  0.10373384  0.77478517  0.76388007     0.09500
C484        C  0.06104371  0.78058286  0.74141320     0.20400
C485        C  0.06873642  0.81848519  0.76189761    -0.54400
C486        C  0.06796147  0.80546478  0.73517912     0.09600
C487        C  0.01375788  0.79159256  0.78871009    -0.54000
C488        C  0.01268632  0.77901510  0.76157051     0.10100
H489        H  0.13111382  0.78411749  0.80918613     0.14600
H490        H  0.06059086  0.77032259  0.71938840     0.00400
H491        H  0.07249936  0.83647811  0.76121899     0.15000
H492        H  0.98311646  0.79151188  0.80590475     0.14700
N493        N  0.03632724  0.16033848  0.97087156    -0.27200
N494        N  0.04072867  0.17950555  0.98638255    -0.35100
C495        C  0.04360242  0.19607710  0.96531543     0.01100
C496        C  0.04111612  0.18681051  0.93525189     0.07100
C497        C  0.03603987  0.16419635  0.93965243    -0.06000
H498        H  0.04691787  0.21355187  0.97145148     0.07800
H499        H  0.03309691  0.15143089  0.92146531     0.09000
Cu500      Cu  0.03288600  0.18112790  0.53758571     0.44200
Cu501      Cu  0.03276581  0.12954769  0.99218507     0.42000
Cu502      Cu  0.04339628  0.12827703  0.57809431     0.43900
N503        N  0.03685246  0.17818419  0.58644249    -0.34600
N504        N  0.04069083  0.15894765  0.60108640    -0.28900
C505        C  0.04194208  0.16274454  0.63248588    -0.05000
C506        C  0.03847037  0.18541342  0.63777890     0.07200
C507        C  0.03558784  0.19474430  0.60818466     0.01000
H508        H  0.04486984  0.14996500  0.65009902     0.08700
H509        H  0.03248084  0.21222572  0.60286762     0.07800
N510        N  0.04390139  0.09972972  0.55004675    -0.36100
N511        N  0.03856771  0.09997204  0.51903779    -0.28300
C512        C  0.03334778  0.07949670  0.00722096    -0.03500
C513        C  0.04740111  0.06489866  0.53275577     0.05100
C514        C  0.04973567  0.07856933  0.55926129     0.03200
H515        H  0.03262376  0.07478833  0.98246322     0.08300
H516        H  0.05610736  0.07360909  0.58335936     0.07100
N517        N  0.06346577  0.87804073  0.95314289    -0.27200
N518        N  0.06640029  0.85831929  0.96653040    -0.35100
C519        C  0.06760917  0.84243572  0.94379517     0.01100
C520        C  0.06556834  0.85266631  0.91475644     0.07100
C521        C  0.06257010  0.87520554  0.92152702    -0.06000
H522        H  0.06966891  0.82476917  0.94811228     0.07800
H523        H  0.06052788  0.88855305  0.90472428     0.09000
Cu524      Cu  0.06496008  0.85320290  0.51210939     0.44200
Cu525      Cu  0.06150906  0.90798141  0.97838246     0.42000
Cu526      Cu  0.06511339  0.90451318  0.55785184     0.43900
N527        N  0.06650828  0.85441051  0.56153332    -0.34600
N528        N  0.06608202  0.87332105  0.57792675    -0.28900
C529        C  0.06645074  0.86886247  0.60897168    -0.05000
C530        C  0.06686075  0.84607187  0.61241762     0.07200
C531        C  0.06715093  0.83734576  0.58192344     0.01000
H532        H  0.06607587  0.88132506  0.62769053     0.08700
H533        H  0.06748041  0.81992664  0.57509621     0.07800
N534        N  0.06716187  0.93407104  0.53337398    -0.36100
N535        N  0.06664805  0.93511917  0.50220374    -0.28300
C536        C  0.05623194  0.95707487  0.00078847    -0.03500
C537        C  0.06914754  0.96967081  0.52086321     0.05100
C538        C  0.06821327  0.95483248  0.54555958     0.03200
H539        H  0.05240544  0.96299477  0.97691214     0.08300
H540        H  0.06746921  0.95885287  0.57057015     0.07100
C541        C  0.09439769  0.03180493  0.51408543    -0.05700
C542        C  0.05299761  0.04050128  0.53100108     0.00200
C543        C  0.01692147  0.02593844  0.54444695    -0.08400
C544        C  0.02401869  0.00287576  0.54075178    -0.05800
C545        C  0.06508742  0.99413899  0.52353439     0.00200
C546        C  0.10133221  0.00871861  0.51019073    -0.08300
C547        C  0.14754256  0.00003143  0.49251766     0.62100
H548        H  0.12123142  0.04333200  0.50381150     0.12800
H549        H  0.99693209  0.99138952  0.55084863     0.12800
C550        C  0.97012424  0.03469964  0.56141402     0.62300
F551        F  0.18158409  0.01689886  0.48595075    -0.22800
F552        F  0.13333489  0.99039052  0.46416207    -0.20200
F553        F  0.17189982  0.98438614  0.51050029    -0.19900
F554        F  0.95484897  0.04885047  0.98571823    -0.19900
F555        F  0.98357183  0.04628834  0.58845401    -0.20200
F556        F  0.93787247  0.01767416  0.57023398    -0.22900
C557        C  0.02278043  0.84261403  0.86493518    -0.05700
C558        C  0.06639383  0.84190902  0.88311629     0.00200
C559        C  0.11055622  0.83233412  0.87011167    -0.08400
C560        C  0.10843735  0.82233416  0.83992589    -0.05800
C561        C  0.06321248  0.82063718  0.82264033     0.00200
C562        C  0.02074883  0.83310225  0.83432338    -0.08300
C563        C  0.97266995  0.83767540  0.81623928     0.62100
H564        H  0.98993184  0.85110076  0.87466509     0.12800
H565        H  0.14302399  0.81607040  0.82967411     0.12800
C566        C  0.15993884  0.83292125  0.88794828     0.62300
F567        F  0.93358130  0.82530334  0.82898053    -0.22800
F568        F  0.97649397  0.83310830  0.78429839    -0.20200
F569        F  0.96058221  0.86001464  0.81928911    -0.19900
F570        F  0.15534260  0.82063749  0.91522110    -0.19900
F571        F  0.17208057  0.85467750  0.89585269    -0.20200
F572        F  0.19942587  0.82410951  0.87016973    -0.22900
C573        C  0.02416899  0.81608255  0.68655560    -0.05700
C574        C  0.06962414  0.81467310  0.70291431     0.00200
C575        C  0.11498095  0.82198966  0.68848600    -0.08400
C576        C  0.11271245  0.83200976  0.65861856    -0.05800
C577        C  0.06695873  0.83402761  0.64264011     0.00200
C578        C  0.02205267  0.82564363  0.65641936    -0.08300
C579        C  0.97205848  0.82738370  0.63964207     0.62100
H580        H  0.99012043  0.80999522  0.69792549     0.12800
H581        H  0.14669117  0.83827906  0.64738900     0.12800
C582        C  0.16549426  0.81834125  0.70402312     0.62300
F583        F  0.93320105  0.81766130  0.65671738    -0.22800
F584        F  0.97518678  0.81673309  0.61051442    -0.20200
F585        F  0.96034484  0.84954549  0.63535086    -0.19900
F586        F  0.17319587  0.79576704  0.70760942    -0.19900
F587        F  0.16645328  0.82871697  0.73336350    -0.20200
F588        F  0.20496597  0.82671061  0.68605758    -0.22900
C589        C  0.08542374  0.21880788  0.86333867    -0.05700
C590        C  0.04090335  0.21998629  0.84530933     0.00200
C591        C  0.99822349  0.20727334  0.85590035    -0.08400
C592        C  0.99957378  0.19761667  0.88600523    -0.05800
C593        C  0.04261472  0.19835044  0.90467120     0.00200
C594        C  0.08698091  0.20826289  0.89278018    -0.08300
C595        C  0.13614389  0.20709553  0.91077064     0.62100
H596        H  0.12010822  0.22554738  0.85415114     0.12800
H597        H  0.96660249  0.18889774  0.89492496     0.12800
C598        C  0.94997375  0.20283228  0.83754427     0.62300
F599        F  0.17615040  0.21600950  0.89383369    -0.22800
F600        F  0.14743764  0.18513394  0.91703508    -0.20200
F601        F  0.13167900  0.21884889  0.93896026    -0.19900
F602        F  0.95274466  0.20796107  0.80596229    -0.19900
F603        F  0.91096281  0.21482874  0.85137783    -0.20200
F604        F  0.93817223  0.18040486  0.83900156    -0.22900
C605        C  0.08461149  0.20474573  0.68038966    -0.05700
C606        C  0.03845272  0.19723764  0.66852443     0.00200
C607        C  0.99341182  0.20120557  0.68585909    -0.08400
C608        C  0.99597513  0.21311051  0.71466562    -0.05800
C609        C  0.04210723  0.22077273  0.72645065     0.00200
C610        C  0.08729390  0.21641095  0.70938525    -0.08300
C611        C  0.13790158  0.22417637  0.72168585     0.62100
H612        H  0.11854774  0.20140248  0.66666213     0.12800
H613        H  0.96204070  0.21631912  0.72846925     0.12800
C614        C  0.94316955  0.19268639  0.67392126     0.62300
F615        F  0.17735507  0.21709130  0.70238447    -0.22800
F616        F  0.14560752  0.21591983  0.75160189    -0.20200
F617        F  0.13886415  0.24714072  0.72296561    -0.19900
F618        F  0.94462114  0.16974288  0.67095160    -0.19900
F619        F  0.93341527  0.20174555  0.64475280    -0.20200
F620        F  0.90386793  0.19826648  0.69430768    -0.22900
C621        C  0.95206871  0.44747679  0.67144038    -0.05700
C622        C  0.93649884  0.46564006  0.69029159     0.00200
C623        C  0.89476630  0.46316750  0.71112329    -0.08400
C624        C  0.87260236  0.44195748  0.71414409    -0.05800
C625        C  0.89070822  0.42339301  0.69691410     0.00200
C626        C  0.92903478  0.42649959  0.67369872    -0.08300
C627        C  0.94739810  0.40831116  0.65111903     0.62100
H628        H  0.98364187  0.44955240  0.65523389     0.12800
H629        H  0.84268603  0.43952070  0.73134760     0.12800
C630        C  0.87352259  0.48275391  0.72989612     0.62300
F631        F  0.95612009  0.41706143  0.62143797    -0.22800
F632        F  0.91253118  0.39135680  0.64754895    -0.20200
F633        F  0.99206670  0.39965456  0.66206823    -0.19900
F634        F  0.86450132  0.50021929  0.70977819    -0.19900
F635        F  0.90725036  0.48947463  0.75277758    -0.20200
F636        F  0.82849565  0.47740311  0.74486247    -0.22900
C637        C  0.94138858  0.58422359  0.66080470    -0.05700
C638        C  0.93945771  0.57064415  0.68766068     0.00200
C639        C  0.91284139  0.57831867  0.71507386    -0.08400
C640        C  0.89398881  0.60014940  0.71557615    -0.05800
C641        C  0.90036725  0.61429188  0.68977221     0.00200
C642        C  0.92238693  0.60604013  0.66141921    -0.08300
C643        C  0.92556417  0.62013493  0.63193736     0.62100
H644        H  0.96036045  0.57810368  0.63966330     0.12800
H645        H  0.87592663  0.60669660  0.73682503     0.12800
C646        C  0.90500837  0.56410746  0.74416907     0.62300
F647        F  0.94144027  0.60782628  0.60578933    -0.22800
F648        F  0.95938907  0.63736678  0.63639869    -0.20200
F649        F  0.87860942  0.62880938  0.62546538    -0.19900
F650        F  0.94862078  0.56393163  0.76173890    -0.19900
F651        F  0.89224961  0.54258262  0.73542296    -0.20200
F652        F  0.86636787  0.57228794  0.76327302    -0.22900
C653        C  0.52305006  0.71756582  0.78271273    -0.05700
C654        C  0.50301800  0.72535417  0.75443852     0.00200
C655        C  0.53508520  0.73500556  0.73145603    -0.08400
C656        C  0.58705087  0.73614259  0.73732834    -0.05800
C657        C  0.60747369  0.72703939  0.76466316     0.00200
C658        C  0.57526613  0.71787779  0.78801997    -0.08300
C659        C  0.59626069  0.70788021  0.81785271     0.62100
H660        H  0.49766693  0.71011439  0.79982213     0.12800
H661        H  0.61261149  0.74272671  0.71959831     0.12800
C662        C  0.51463557  0.74299702  0.70028354     0.62300
F663        F  0.55834671  0.70158319  0.83867727    -0.22800
F664        F  0.62652911  0.72332838  0.83305082    -0.20200
F665        F  0.62453306  0.68923098  0.81022357    -0.19900
F666        F  0.47869713  0.75924375  0.70587949    -0.19900
F667        F  0.49290757  0.72534875  0.68409514    -0.20200
F668        F  0.55215851  0.75189000  0.68121490    -0.22900
C669        C  0.17265966  0.60353598  0.66192731    -0.05700
C670        C  0.20156540  0.60702406  0.68903132     0.00200
C671        C  0.20388852  0.59025058  0.71212668    -0.08400
C672        C  0.17541062  0.57071300  0.70763022    -0.05800
C673        C  0.14373967  0.56771405  0.68146269     0.00200
C674        C  0.14336040  0.58420881  0.65759462    -0.08300
C675        C  0.11041150  0.58232521  0.62851352     0.62100
H676        H  0.17151359  0.61672279  0.64475574     0.12800
H677        H  0.17599430  0.55793521  0.72541179     0.12800
C678        C  0.23352885  0.59348791  0.74234739     0.62300
F679        F  0.06044350  0.58017747  0.63759350    -0.22800
F680        F  0.12490570  0.56405467  0.61040350    -0.20200
F681        F  0.11426768  0.60091041  0.60961485    -0.19900
F682        F  0.21737015  0.61254236  0.75810066    -0.19900
F683        F  0.28427096  0.59537754  0.73521577    -0.20200
F684        F  0.22748408  0.57576350  0.76264047    -0.22900
C685        C  0.50716761  0.30228336  0.75709553    -0.05700
C686        C  0.48150566  0.31668106  0.77803734     0.00200
C687        C  0.50852515  0.32875576  0.80121513    -0.08400
C688        C  0.56139947  0.32729039  0.80117465    -0.05800
C689        C  0.58743264  0.31398301  0.77896101     0.00200
C690        C  0.56013417  0.30073112  0.75711613    -0.08300
C691        C  0.58700690  0.28585692  0.73309886     0.62100
H692        H  0.48548807  0.29309735  0.73971542     0.12800
H693        H  0.58305339  0.33730474  0.81764254     0.12800
C694        C  0.48140211  0.34335395  0.82546853     0.62300
F695        F  0.55347530  0.27480938  0.71352954    -0.22800
F696        F  0.61488944  0.27008138  0.74865811    -0.20200
F697        F  0.61885643  0.29846816  0.71437671    -0.19900
F698        F  0.44582935  0.33082417  0.84151514    -0.19900
F699        F  0.45759658  0.36068402  0.81056737    -0.20200
F700        F  0.51425976  0.35233413  0.84741239    -0.22900
C701        C  0.19345621  0.43966656  0.71064717    -0.05700
C702        C  0.18365492  0.42335214  0.68750504     0.00200
C703        C  0.15450861  0.42878280  0.66094706    -0.08400
C704        C  0.13135109  0.44976160  0.66023606    -0.05800
C705        C  0.13738822  0.46547371  0.68483832     0.00200
C706        C  0.17132029  0.46087120  0.70963104    -0.08300
C707        C  0.18459682  0.47805036  0.73490886     0.62100
H708        H  0.21699994  0.43535655  0.73036483     0.12800
H709        H  0.10640384  0.45359136  0.64100601     0.12800
C710        C  0.14866142  0.41272688  0.63321128     0.62300
F711        F  0.22699950  0.47192084  0.75142456    -0.22800
F712        F  0.14518164  0.48033635  0.75636740    -0.20200
F713        F  0.19464613  0.49835908  0.72108907    -0.19900
F714        F  0.11879456  0.39491015  0.64182301    -0.19900
F715        F  0.19554554  0.40503779  0.62354599    -0.20200
F716        F  0.12654630  0.42284774  0.60765362    -0.22900
loop_ 
_geom_bond_atom_site_label_1 
_geom_bond_atom_site_label_2 
_geom_bond_distance 
_geom_bond_site_symmetry_2 
_ccdc_geom_bond_type 
N1            N2   1.320       .  A
N1            C5   1.346       .  A
N1           Cu9   2.079       .  S
N2            C3   1.343       .  A
N2           Cu8   2.063       .  S
C3            C4   1.383       .  A
C3            H6   1.082       .  S
C4            C5   1.388       .  A
C4          C344   1.480       .  S
C5            H7   1.082       .  S
Cu8          N11   2.063       .  S
Cu9          N19   2.080       .  S
Cu10         N12   2.085       .  S
Cu10         N18   2.085       .  S
N11          N12   1.322       .  A
N11          C15   1.344       .  A
N12          C13   1.346       .  A
C13          C14   1.387       .  A
C13          H16   1.082       .  S
C14          C15   1.380       .  A
C14         C118   1.478       .  S
C15          H17   1.081       .  S
N18          N19   1.324       .  A
N18          C22   1.349       .  A
N19          C20   1.344       .  A
C20          C21   1.382       .  A
C20          H23   1.081       .  S
C21          C22   1.384       .  A
C21         C328   1.478       .  S
C22          H24   1.082       .  S
N25          N26   1.322       .  A
N25          C29   1.346       .  A
N25         Cu33   2.068       .  S
N26          C27   1.342       .  A
N26         Cu32   2.069       .  S
C27          C28   1.381       .  A
C27          H30   1.083       .  S
C28          C29   1.383       .  A
C28         C312   1.475       .  S
C29          H31   1.081       .  S
Cu32         N35   2.069       .  S
Cu33         N43   2.069       .  S
Cu34         N36   2.074       .  S
Cu34         N42   2.074       .  S
N35          N36   1.322       .  A
N35          C39   1.345       .  A
N36          C37   1.344       .  A
C37          C38   1.383       .  A
C37          H40   1.082       .  S
C38          C39   1.381       .  A
C38         C125   1.473       .  S
C39          H41   1.082       .  S
N42          N43   1.323       .  A
N42          C46   1.347       .  A
N43          C44   1.342       .  A
C44          C45   1.379       .  A
C44          H47   1.082       .  S
C45          C46   1.382       .  A
C45         C296   1.471       .  S
C46          H48   1.082       .  S
N49          N50   1.319       .  A
N49          C53   1.343       .  A
N49         Cu57   2.054       .  S
N50          C51   1.345       .  A
N50         Cu56   2.073       .  S
C51          C52   1.386       .  A
C51          H54   1.084       .  S
C52          C53   1.381       .  A
C52         C283   1.475       .  S
C53          H55   1.083       .  S
Cu56         N59   2.074       .  S
Cu57         N67   2.055       .  S
Cu58         N60   2.093       .  S
Cu58         N66   2.091       .  S
N59          N60   1.324       .  A
N59          C63   1.343       .  A
N60          C61   1.349       .  A
C61          C62   1.387       .  A
C61          H64   1.082       .  S
C62          C63   1.381       .  A
C62         C130   1.480       .  S
C63          H65   1.081       .  S
N66          N67   1.323       .  A
N66          C70   1.351       .  A
N67          C68   1.339       .  A
C68          C69   1.375       .  A
C68          H71   1.082       .  S
C69          C70   1.387       .  A
C69         C299   1.471       .  S
C70          H72   1.082       .  S
O73         Cu81   2.004   1_655  S
O73          C83   1.278       .  A
O74         Cu81   2.004       .  S
O74          C84   1.276       .  A
O75         Cu81   2.013       .  S
O75          C85   1.279       .  A
O76         Cu81   2.016   1_655  S
O76          C86   1.280       .  A
O77         Cu82   1.999   1_655  S
O77          C86   1.275       .  A
O78         Cu82   2.001       .  S
O78          C85   1.275       .  A
O79         Cu82   2.001       .  S
O79          C84   1.278       .  A
O80         Cu82   1.998   1_655  S
O80          C83   1.275       .  A
Cu81        Cu82   2.363       .  S
C83         C264   1.481       .  S
C84         C315   1.487       .  S
C85         C347   1.491       .  S
C86         C280   1.494       .  S
N87          N88   1.319       .  A
N87          C91   1.344       .  A
N87         Cu95   2.060       .  S
N88          C89   1.345       .  A
N88         Cu94   2.073       .  S
C89          C90   1.386       .  A
C89          H92   1.079       .  S
C90          C91   1.382       .  A
C90         C267   1.478       .  S
C91          H93   1.082       .  S
Cu94         N97   2.073       .  S
Cu95        N105   2.061       .  S
Cu96         N98   2.094       .  S
Cu96        N104   2.094       .  S
N97          N98   1.324       .  A
N97         C101   1.344       .  A
N98          C99   1.349       .  A
C99         C100   1.387       .  A
C99         H102   1.082       .  S
C100        C101   1.380       .  A
C100        C113   1.478       .  S
C101        H103   1.080       .  S
N104        N105   1.323       .  A
N104        C108   1.351       .  A
N105        C106   1.340       .  A
C106        C107   1.378       .  A
C106        H109   1.081       .  S
C107        C108   1.388       .  A
C107        C331   1.478       .  S
C108        H110   1.081       .  S
C111        C112   1.544   1_455  S
C111        C117   1.553       .  S
C111        C115   1.537       .  S
C111        C232   1.542       .  S
C112        H119   1.085       .  S
C112        C113   1.365       .  D
C113        C114   1.537   1_655  S
C114        C118   1.534       .  S
C114        C116   1.533       .  S
C114        H120   1.110       .  S
C115        H121   1.086       .  S
C115        C116   1.362       .  D
C116        C251   1.478       .  S
C117        H122   1.083       .  S
C117        C118   1.364       .  D
C123        C124   1.552       .  S
C123        C129   1.547   1_455  S
C123        C127   1.534       .  S
C123        C203   1.544       .  S
C124        H131   1.084       .  S
C124        C125   1.363       .  D
C125        C126   1.530       .  S
C126        C130   1.537   1_455  S
C126        C128   1.532       .  S
C126        H132   1.110       .  S
C127        H133   1.086       .  S
C127        C128   1.362       .  D
C128        C216   1.476       .  S
C129        H134   1.084       .  S
C129        C130   1.369       .  D
N135        N136   1.323       .  A
N135        C139   1.343       .  A
N135       Cu143   2.064       .  S
N136        C137   1.347       .  A
N136       Cu500   2.081       .  S
C137        C138   1.384       .  A
C137        H140   1.082       .  S
C138        C139   1.378       .  A
C138        C235   1.473       .  S
C139        H141   1.082       .  S
Cu142       N145   2.083       .  S
Cu142       N494   2.083   1_554  S
Cu143       N511   2.064       .  S
Cu144       N146   2.072       .  S
Cu144       N152   2.072       .  S
N145        N146   1.323       .  A
N145        C149   1.348       .  A
N146        C147   1.344       .  A
C147        C148   1.379       .  A
C147        H150   1.081       .  S
C148        C149   1.383       .  A
C148        C248   1.474       .  S
C149        H151   1.081       .  S
N152        N153   1.321       .  A
N152        C156   1.346       .  A
N153        C512   1.345       .  A
N153       Cu501   2.070   1_554  S
C154        N511   1.344       .  A
C154        C513   1.381       .  A
C154        H157   1.082       .  S
C155        C156   1.383       .  A
C155        C512   1.383       .  A
C155        C184   1.477       .  S
C156        H158   1.082       .  S
N159        N160   1.324       .  A
N159        C163   1.346       .  A
N159       Cu167   2.074       .  S
N160        C161   1.347       .  A
N160       Cu524   2.092       .  S
C161        C162   1.384       .  A
C161        H164   1.081       .  S
C162        C163   1.381       .  A
C162        C200   1.478       .  S
C163        H165   1.081       .  S
Cu166       N169   2.077       .  S
Cu166       N518   2.078   1_554  S
Cu167       N535   2.073       .  S
Cu168       N170   2.075       .  S
Cu168       N176   2.075       .  S
N169        N170   1.323       .  A
N169        C173   1.347       .  A
N170        C171   1.344       .  A
C171        C172   1.380       .  A
C171        H174   1.082       .  S
C172        C173   1.382       .  A
C172        C219   1.473       .  S
C173        H175   1.082       .  S
N176        N177   1.322       .  A
N176        C180   1.346       .  A
N177        C536   1.346       .  A
N177       Cu525   2.079   1_554  S
C178        N535   1.345       .  A
C178        C537   1.384       .  A
C178        H181   1.081       .  S
C179        C180   1.383       .  A
C179        C536   1.383       .  A
C179        C187   1.478       .  S
C180        H182   1.082       .  S
C183        C184   1.402       .  A
C183        C188   1.407       .  A
C183        H190   1.084       .  S
C184        C185   1.416   1_455  A
C185        C186   1.408   1_655  A
C185        C192   1.518       .  S
C186        C187   1.403   1_545  A
C186        H191   1.084   1_445  S
C187        C188   1.416   1_565  A
C188        C189   1.518   1_545  S
C189        F193   1.385   1_565  S
C189        F194   1.383       .  S
C189        F195   1.382       .  S
C192        F197   1.383       .  S
C192        F198   1.384       .  S
C192        F554   1.382   1_554  S
F196        C550   1.383       .  S
C199        C200   1.399       .  A
C199        C204   1.411       .  A
C199        H206   1.085   1_455  S
C200        C201   1.409       .  A
C201        C202   1.405       .  A
C201        C208   1.519       .  S
C202        C203   1.414       .  A
C202        H207   1.078       .  S
C203        C204   1.432       .  A
C204        C205   1.523   1_455  S
C205        F209   1.383       .  S
C205        F210   1.379       .  S
C205        F211   1.385       .  S
C208        F212   1.382       .  S
C208        F213   1.383       .  S
C208        F214   1.385       .  S
C215        C216   1.400       .  A
C215        C220   1.406       .  A
C215        H222   1.084   1_455  S
C216        C217   1.415       .  A
C217        C218   1.407       .  A
C217        C224   1.517       .  S
C218        C219   1.401       .  A
C218        H223   1.083       .  S
C219        C220   1.415       .  A
C220        C221   1.516   1_455  S
C221        F225   1.385       .  S
C221        F226   1.383       .  S
C221        F227   1.383       .  S
C224        F228   1.382       .  S
C224        F229   1.382       .  S
C224        F230   1.384       .  S
C231        C232   1.415       .  A
C231        C236   1.405       .  A
C231        H238   1.077       .  S
C232        C233   1.434   1_455  A
C233        C234   1.407       .  A
C233        C240   1.524       .  S
C234        C235   1.396   1_655  A
C234        H239   1.085       .  S
C235        C236   1.408       .  A
C236        C237   1.520       .  S
C237        F241   1.385       .  S
C237        F242   1.383       .  S
C237        F243   1.382       .  S
C240        F244   1.377       .  S
C240        F245   1.383       .  S
C240        F246   1.385       .  S
C247        C248   1.401       .  A
C247        C252   1.407       .  A
C247        H254   1.083       .  S
C248        C249   1.414   1_455  A
C249        C250   1.407       .  A
C249        C256   1.517       .  S
C250        C251   1.401   1_655  A
C250        H255   1.084       .  S
C251        C252   1.416       .  A
C252        C253   1.517       .  S
C253        F257   1.384       .  S
C253        F258   1.382       .  S
C253        F259   1.381       .  S
C256        F260   1.383       .  S
C256        F261   1.382       .  S
C256        F262   1.384       .  S
C263        C264   1.406       .  A
C263        C268   1.404       .  A
C263        H270   1.082       .  S
C264        C265   1.419       .  A
C265        C266   1.406       .  A
C265        C272   1.519       .  S
C266        C267   1.404       .  A
C266        H271   1.082       .  S
C267        C268   1.415       .  A
C268        C269   1.518       .  S
C269        F273   1.385       .  S
C269        F274   1.383       .  S
C269        F275   1.381       .  S
C272        F276   1.384       .  S
C272        F277   1.382       .  S
C272        F278   1.385       .  S
C279        C280   1.411       .  A
C279        C284   1.406       .  A
C279        H286   1.082       .  S
C280        C281   1.427       .  A
C281        C282   1.407       .  A
C281        C288   1.521       .  S
C282        C283   1.399       .  A
C282        H287   1.084       .  S
C283        C284   1.409       .  A
C284        C285   1.517       .  S
C285        F289   1.384       .  S
C285        F290   1.382       .  S
C285        F291   1.384       .  S
C288        F292   1.383       .  S
C288        F293   1.383       .  S
C288        F294   1.385       .  S
C295        C296   1.402       .  A
C295        C300   1.408       .  A
C295        H302   1.083       .  S
C296        C297   1.414       .  A
C297        C298   1.403       .  A
C297        C304   1.518       .  S
C298        C299   1.401       .  A
C298        H303   1.084       .  S
C299        C300   1.414       .  A
C300        C301   1.516       .  S
C301        F305   1.385       .  S
C301        F306   1.383       .  S
C301        F307   1.383       .  S
C304        F308   1.383       .  S
C304        F309   1.382       .  S
C304        F310   1.384       .  S
C311        C312   1.399       .  A
C311        C316   1.405       .  A
C311        H318   1.083       .  S
C312        C313   1.415       .  A
C313        C314   1.406       .  A
C313        C320   1.519       .  S
C314        C315   1.407       .  A
C314        H319   1.082       .  S
C315        C316   1.424       .  A
C316        C317   1.521       .  S
C317        F321   1.383       .  S
C317        F322   1.383       .  S
C317        F323   1.385       .  S
C320        F324   1.383       .  S
C320        F325   1.381       .  S
C320        F326   1.385       .  S
C327        C328   1.404       .  A
C327        C332   1.410       .  A
C327        H334   1.083       .  S
C328        C329   1.414       .  A
C329        C330   1.405       .  A
C329        C336   1.517       .  S
C330        C331   1.402       .  A
C330        H335   1.084       .  S
C331        C332   1.416       .  A
C332        C333   1.517       .  S
C333        F337   1.385       .  S
C333        F338   1.382       .  S
C333        F339   1.383       .  S
C336        F340   1.383       .  S
C336        F341   1.382       .  S
C336        F342   1.385       .  S
C343        C344   1.401       .  A
C343        C348   1.406       .  A
C343        H350   1.083       .  S
C344        C345   1.414       .  A
C345        C346   1.407       .  A
C345        C352   1.519       .  S
C346        C347   1.409       .  A
C346        H351   1.082       .  S
C347        C348   1.424       .  A
C348        C349   1.520       .  S
C349        F353   1.385       .  S
C349        F354   1.383       .  S
C349        F355   1.384       .  S
C352        F356   1.381       .  S
C352        F357   1.383       .  S
C352        F358   1.385       .  S
N359        N360   1.321       .  A
N359        C363   1.345       .  A
N359       Cu367   2.069       .  S
N360        C361   1.343       .  A
N360       Cu366   2.070       .  S
C361        C362   1.383       .  A
C361        H364   1.080       .  S
C362        C363   1.384       .  A
C362        C702   1.476       .  S
C363        H365   1.082       .  S
Cu366       N369   2.070       .  S
Cu367       N377   2.070       .  S
Cu368       N370   2.080       .  S
Cu368       N376   2.080       .  S
N369        N370   1.322       .  A
N369        C373   1.346       .  A
N370        C371   1.345       .  A
C371        C372   1.385       .  A
C371        H374   1.082       .  S
C372        C373   1.383       .  A
C372        C476   1.478       .  S
C373        H375   1.078       .  S
N376        N377   1.323       .  A
N376        C380   1.348       .  A
N377        C378   1.343       .  A
C378        C379   1.380       .  A
C378        H381   1.081       .  S
C379        C380   1.383       .  A
C379        C686   1.474       .  S
C380        H382   1.082       .  S
N383        N384   1.322       .  A
N383        C387   1.348       .  A
N383       Cu391   2.076       .  S
N384        C385   1.341       .  A
N384       Cu390   2.068       .  S
C385        C386   1.380       .  A
C385        H388   1.083       .  S
C386        C387   1.385       .  A
C386        C670   1.478       .  S
C387        H389   1.081       .  S
Cu390       N393   2.068       .  S
Cu391       N401   2.076       .  S
Cu392       N394   2.076       .  S
Cu392       N400   2.077       .  S
N393        N394   1.322       .  A
N393        C397   1.346       .  A
N394        C395   1.344       .  A
C395        C396   1.384       .  A
C395        H398   1.082       .  S
C396        C397   1.381       .  A
C396        C483   1.474       .  S
C397        H399   1.083       .  S
N400        N401   1.324       .  A
N400        C404   1.347       .  A
N401        C402   1.344       .  A
C402        C403   1.380       .  A
C402        H405   1.082       .  S
C403        C404   1.381       .  A
C403        C654   1.472       .  S
C404        H406   1.082       .  S
N407        N408   1.319       .  A
N407        C411   1.342       .  A
N407       Cu415   2.052       .  S
N408        C409   1.344       .  A
N408       Cu414   2.068       .  S
C409        C410   1.386       .  A
C409        H412   1.083       .  S
C410        C411   1.381       .  A
C410        C641   1.475       .  S
C411        H413   1.083       .  S
Cu414       N417   2.069       .  S
Cu415       N425   2.053       .  S
Cu416       N418   2.090       .  S
Cu416       N424   2.089       .  S
N417        N418   1.324       .  A
N417        C421   1.343       .  A
N418        C419   1.348       .  A
C419        C420   1.386       .  A
C419        H422   1.082       .  S
C420        C421   1.379       .  A
C420        C488   1.476   1_655  S
C421        H423   1.082   1_655  S
N424        N425   1.322       .  A
N424        C428   1.350       .  A
N425        C426   1.339       .  A
C426        C427   1.376       .  A
C426        H429   1.082       .  S
C427        C428   1.388       .  A
C427        C657   1.472       .  S
C428        H430   1.082       .  S
O431       Cu439   2.010   1_655  S
O431        C441   1.278       .  A
O432       Cu439   2.010       .  S
O432        C442   1.276       .  A
O433       Cu439   2.007       .  S
O433        C443   1.279       .  A
O434       Cu439   2.014   1_655  S
O434        C444   1.280       .  A
O435       Cu440   1.992   1_655  S
O435        C444   1.274       .  A
O436       Cu440   1.992       .  S
O436        C443   1.274       .  A
O437       Cu440   2.006       .  S
O437        C442   1.279       .  A
O438       Cu440   2.010   1_655  S
O438        C441   1.277       .  A
Cu439      Cu440   2.366       .  S
C441        C622   1.480       .  S
C442        C673   1.490       .  S
C443        C705   1.482       .  S
C444        C638   1.487       .  S
N445        N446   1.319       .  A
N445        C449   1.346       .  A
N445       Cu453   2.069       .  S
N446        C447   1.343       .  A
N446       Cu452   2.069       .  S
C447        C448   1.386       .  A
C447        H450   1.080       .  S
C448        C449   1.387       .  A
C448        C625   1.484       .  S
C449        H451   1.082       .  S
Cu452       N455   2.069       .  S
Cu453       N463   2.069       .  S
Cu454       N456   2.096       .  S
Cu454       N462   2.096       .  S
N455        N456   1.323       .  A
N455        C459   1.344       .  A
N456        C457   1.350       .  A
C457        C458   1.389       .  A
C457        H460   1.081       .  S
C458        C459   1.380       .  A
C458        C471   1.480       .  S
C459        H461   1.077       .  S
N462        N463   1.324       .  A
N462        C466   1.351       .  A
N463        C464   1.342       .  A
C464        C465   1.378       .  A
C464        H467   1.081       .  S
C465        C466   1.386       .  A
C465        C689   1.477       .  S
C466        H468   1.081       .  S
C469        C470   1.544   1_455  S
C469        C475   1.553       .  S
C469        C473   1.534       .  S
C469        C590   1.543       .  S
C470        H477   1.085       .  S
C470        C471   1.365       .  D
C471        C472   1.540   1_655  S
C472        C476   1.535       .  S
C472        C474   1.537       .  S
C472        H478   1.110       .  S
C473        H479   1.087       .  S
C473        C474   1.361       .  D
C474        C609   1.479       .  S
C475        H480   1.082       .  S
C475        C476   1.365       .  D
C481        C482   1.552       .  S
C481        C487   1.545       .  S
C481        C485   1.539       .  S
C481        C561   1.548       .  S
C482        H489   1.083       .  S
C482        C483   1.362       .  D
C483        C484   1.531       .  S
C484        C488   1.536       .  S
C484        C486   1.532       .  S
C484        H490   1.110       .  S
C485        H491   1.086       .  S
C485        C486   1.366       .  D
C486        C574   1.480       .  S
C487        H492   1.085   1_455  S
C487        C488   1.367       .  D
N493        N494   1.323       .  A
N493        C497   1.344       .  A
N493       Cu501   2.070       .  S
N494        C495   1.347       .  A
C495        C496   1.384       .  A
C495        H498   1.082       .  S
C496        C497   1.380       .  A
C496        C593   1.476       .  S
C497        H499   1.082       .  S
Cu500       N503   2.081       .  S
Cu502       N504   2.073       .  S
Cu502       N510   2.072       .  S
N503        N504   1.323       .  A
N503        C507   1.346       .  A
N504        C505   1.346       .  A
C505        C506   1.380       .  A
C505        H508   1.081       .  S
C506        C507   1.382       .  A
C506        C606   1.474       .  S
C507        H509   1.081       .  S
N510        N511   1.321       .  A
N510        C514   1.345       .  A
C512        H515   1.082   1_554  S
C513        C514   1.383       .  A
C513        C542   1.474       .  S
C514        H516   1.081       .  S
N517        N518   1.323       .  A
N517        C521   1.346       .  A
N517       Cu525   2.080       .  S
N518        C519   1.346       .  A
C519        C520   1.383       .  A
C519        H522   1.081       .  S
C520        C521   1.383       .  A
C520        C558   1.478       .  S
C521        H523   1.081       .  S
Cu524       N527   2.092       .  S
Cu526       N528   2.068       .  S
Cu526       N534   2.068       .  S
N527        N528   1.323       .  A
N527        C531   1.349       .  A
N528        C529   1.344       .  A
C529        C530   1.379       .  A
C529        H532   1.082       .  S
C530        C531   1.386       .  A
C530        C577   1.478       .  S
C531        H533   1.082       .  S
N534        N535   1.321       .  A
N534        C538   1.344       .  A
C536        H539   1.081   1_554  S
C537        C538   1.382       .  A
C537        C545   1.477       .  S
C538        H540   1.082       .  S
C541        C542   1.402       .  A
C541        C546   1.407       .  A
C541        H548   1.084       .  S
C542        C543   1.415       .  A
C543        C544   1.405       .  A
C543        C550   1.519   1_455  S
C544        C545   1.403   1_545  A
C544        H549   1.083   1_445  S
C545        C546   1.417   1_565  A
C546        C547   1.518       .  S
C547        F551   1.385       .  S
C547        F552   1.381   1_545  S
C547        F553   1.383   1_545  S
C550        F555   1.381       .  S
C550        F556   1.384       .  S
C557        C558   1.398       .  A
C557        C562   1.410       .  A
C557        H564   1.085   1_455  S
C558        C559   1.409       .  A
C559        C560   1.406       .  A
C559        C566   1.520       .  S
C560        C561   1.415       .  A
C560        H565   1.077       .  S
C561        C562   1.434       .  A
C562        C563   1.523   1_455  S
C563        F567   1.383       .  S
C563        F568   1.378       .  S
C563        F569   1.385       .  S
C566        F570   1.382       .  S
C566        F571   1.383       .  S
C566        F572   1.385       .  S
C573        C574   1.401       .  A
C573        C578   1.407       .  A
C573        H580   1.084   1_455  S
C574        C575   1.415       .  A
C575        C576   1.409       .  A
C575        C582   1.518       .  S
C576        C577   1.403       .  A
C576        H581   1.083       .  S
C577        C578   1.415       .  A
C578        C579   1.516   1_455  S
C579        F583   1.385       .  S
C579        F584   1.383       .  S
C579        F585   1.383       .  S
C582        F586   1.383       .  S
C582        F587   1.382       .  S
C582        F588   1.384       .  S
C589        C590   1.416       .  A
C589        C594   1.406       .  A
C589        H596   1.075       .  S
C590        C591   1.435   1_455  A
C591        C592   1.407       .  A
C591        C598   1.526       .  S
C592        C593   1.396   1_655  A
C592        H597   1.085       .  S
C593        C594   1.409       .  A
C594        C595   1.520       .  S
C595        F599   1.384       .  S
C595        F600   1.384       .  S
C595        F601   1.382       .  S
C598        F602   1.376       .  S
C598        F603   1.383       .  S
C598        F604   1.385       .  S
C605        C606   1.401       .  A
C605        C610   1.407       .  A
C605        H612   1.083       .  S
C606        C607   1.414   1_455  A
C607        C608   1.407       .  A
C607        C614   1.517       .  S
C608        C609   1.402   1_655  A
C608        H613   1.084       .  S
C609        C610   1.415       .  A
C610        C611   1.516       .  S
C611        F615   1.384       .  S
C611        F616   1.383       .  S
C611        F617   1.380       .  S
C614        F618   1.383       .  S
C614        F619   1.383       .  S
C614        F620   1.384       .  S
C621        C622   1.403       .  A
C621        C626   1.403       .  A
C621        H628   1.084       .  S
C622        C623   1.416       .  A
C623        C624   1.409       .  A
C623        C630   1.517       .  S
C624        C625   1.407       .  A
C624        H629   1.082       .  S
C625        C626   1.419       .  A
C626        C627   1.519       .  S
C627        F631   1.385       .  S
C627        F632   1.382       .  S
C627        F633   1.383       .  S
C630        F634   1.383       .  S
C630        F635   1.382       .  S
C630        F636   1.385       .  S
C637        C638   1.408       .  A
C637        C642   1.405       .  A
C637        H644   1.082       .  S
C638        C639   1.423       .  A
C639        C640   1.405       .  A
C639        C646   1.519       .  S
C640        C641   1.401       .  A
C640        H645   1.083       .  S
C641        C642   1.412       .  A
C642        C643   1.518       .  S
C643        F647   1.384       .  S
C643        F648   1.381       .  S
C643        F649   1.383       .  S
C646        F650   1.383       .  S
C646        F651   1.383       .  S
C646        F652   1.385       .  S
C653        C654   1.401       .  A
C653        C658   1.406       .  A
C653        H660   1.083       .  S
C654        C655   1.414       .  A
C655        C656   1.405       .  A
C655        C662   1.516       .  S
C656        C657   1.401       .  A
C656        H661   1.083       .  S
C657        C658   1.415       .  A
C658        C659   1.517       .  S
C659        F663   1.385       .  S
C659        F664   1.383       .  S
C659        F665   1.382       .  S
C662        F666   1.382       .  S
C662        F667   1.383       .  S
C662        F668   1.385       .  S
C669        C670   1.400       .  A
C669        C674   1.407       .  A
C669        H676   1.083       .  S
C670        C671   1.415       .  A
C671        C672   1.407       .  A
C671        C678   1.519       .  S
C672        C673   1.407       .  A
C672        H677   1.082       .  S
C673        C674   1.424       .  A
C674        C675   1.521       .  S
C675        F679   1.382       .  S
C675        F680   1.383       .  S
C675        F681   1.385       .  S
C678        F682   1.383       .  S
C678        F683   1.381       .  S
C678        F684   1.385       .  S
C685        C686   1.402       .  A
C685        C690   1.409       .  A
C685        H692   1.083       .  S
C686        C687   1.413       .  A
C687        C688   1.406       .  A
C687        C694   1.517       .  S
C688        C689   1.402       .  A
C688        H693   1.084       .  S
C689        C690   1.416       .  A
C690        C691   1.517       .  S
C691        F695   1.385       .  S
C691        F696   1.382       .  S
C691        F697   1.383       .  S
C694        F698   1.383       .  S
C694        F699   1.382       .  S
C694        F700   1.384       .  S
C701        C702   1.402       .  A
C701        C706   1.406       .  A
C701        H708   1.083       .  S
C702        C703   1.414       .  A
C703        C704   1.404       .  A
C703        C710   1.518       .  S
C704        C705   1.406       .  A
C704        H709   1.082       .  S
C705        C706   1.421       .  A
C706        C707   1.520       .  S
C707        F711   1.385       .  S
C707        F712   1.383       .  S
C707        F713   1.384       .  S
C710        F714   1.381       .  S
C710        F715   1.383       .  S
C710        F716   1.385       .  S
