geometry optimzed in LAMMPS
_audit_creation_date              2020-11-30 
_audit_creation_method            'lammps2cif' 
_symmetry_space_group_name_H-M    'P1' 
_symmetry_Int_Tables_number       1 
_symmetry_cell_setting            triclinic 
loop_ 
_symmetry_equiv_pos_as_xyz 
  x,y,z 
_cell_length_a                    48.23292218 
_cell_length_b                    46.35794410293035 
_cell_length_c                    58.03258809336947 
_cell_angle_alpha                 89.95363275850893 
_cell_angle_beta                  139.4014843138805 
_cell_angle_gamma                 90.02886505599798 
loop_ 
_atom_site_label 
_atom_site_type_symbol 
_atom_site_fract_x 
_atom_site_fract_y 
_atom_site_fract_z 
_atom_site_charge 
In1        In  0.25139129  0.70345479  0.37511451     1.36900
C2          C  0.26754612  0.73019861  0.42500745     0.77200
O3          O  0.18150111  0.70198148  0.33794066    -0.61200
O4          O  0.21263668  0.66270696  0.34889753    -0.52100
C5          C  0.23482995  0.72997501  0.32494245     0.69900
O6          O  0.22652938  0.74106459  0.33899684    -0.47000
C7          C  0.32481295  0.67571257  0.41783117     0.74600
O8          O  0.27521678  0.74145083  0.41052667    -0.58800
O9          O  0.29079124  0.66301587  0.40189304    -0.48900
O10         O  0.25022210  0.70574142  0.41315877    -0.55300
C11         C  0.17828868  0.67526846  0.33232977     0.84800
O12         O  0.25304200  0.70581246  0.33738837    -0.57100
O13         O  0.32112593  0.70235745  0.41166443    -0.60400
In14       In  0.44781865  0.26101711  0.24097905     1.36900
C15         C  0.37146193  0.23740568  0.19619606     0.77200
O16         O  0.43224524  0.25986630  0.19376564    -0.61200
O17         O  0.99274596  0.24386030  0.24221457    -0.52100
C18         C  0.46709266  0.31668448  0.25147362     0.69900
O19         O  0.42930172  0.30761890  0.22931112    -0.47000
C20         C  0.97791350  0.23979560  0.29920243     0.74600
O21         O  0.37736250  0.26404040  0.20314461    -0.58800
O22         O  0.98697716  0.22889350  0.28562352    -0.48900
O23         O  0.40438317  0.22314960  0.21204172    -0.55300
C24         C  0.46717521  0.24888014  0.20971945     0.84800
O25         O  0.99515099  0.29717527  0.26931324    -0.57100
O26         O  0.45572381  0.26239347  0.28430589    -0.60400
In27       In  0.06269125  0.63428490  0.26440360     1.36900
C28         C  0.13749574  0.66027660  0.30824618     0.77200
O29         O  0.05448856  0.63284993  0.22081988    -0.61200
O30         O  0.52023153  0.66467536  0.21790072    -0.52100
C31         C  0.04578319  0.57821670  0.25604647     0.69900
O32         O  0.08299511  0.58786777  0.27655045    -0.47000
C33         C  0.04395458  0.64627064  0.29615455     0.74600
O34         O  0.13342326  0.63345276  0.30262541    -0.58800
O35         O  0.51858131  0.65200202  0.26383992    -0.48900
O36         O  0.10356350  0.67352875  0.29148555    -0.55300
C37         C  0.03019736  0.65446040  0.20478705     0.84800
O38         O  0.51711074  0.59729221  0.23859730    -0.57100
O39         O  0.07835523  0.63461719  0.31166257    -0.60400
In40       In  0.44085554  0.63533211  0.48593572     1.36900
C41         C  0.36576919  0.66093123  0.44188370     0.77200
O42         O  0.44880494  0.63353995  0.02932696    -0.61200
O43         O  0.98182178  0.66630921  0.03179867    -0.52100
C44         C  0.45831311  0.57935521  0.99495740     0.69900
O45         O  0.42075822  0.58889367  0.47302444    -0.47000
C46         C  0.96078306  0.64718248  0.45504729     0.74600
O47         O  0.37028796  0.63420217  0.44818901    -0.58800
O48         O  0.98622024  0.65224382  0.98752397    -0.48900
O49         O  0.39939822  0.67428292  0.45798029    -0.55300
C50         C  0.97225134  0.65554881  0.04505190     0.84800
O51         O  0.98689841  0.59849584  0.01326370    -0.57100
O52         O  0.42570893  0.63632929  0.43893587    -0.60400
In53       In  0.06390472  0.26315226  0.01537627     1.36900
C54         C  0.13991641  0.23884893  0.06021509     0.77200
O55         O  0.08029557  0.26389834  0.06300849    -0.61200
O56         O  0.52107035  0.24521661  0.01606030    -0.52100
C57         C  0.04331477  0.31866687  0.00378251     0.69900
O58         O  0.08111991  0.31005949  0.02474420    -0.47000
C59         C  0.53290118  0.24128690  0.45698107     0.74600
O60         O  0.13462168  0.26555718  0.05361786    -0.58800
O61         O  0.52394427  0.23088319  0.47082937    -0.48900
O62         O  0.10661097  0.22493205  0.04393388    -0.55300
C63         C  0.04652958  0.25166649  0.04821333     0.84800
O64         O  0.51590213  0.29877825  0.48752409    -0.57100
O65         O  0.05526348  0.26383572  0.47157764    -0.60400
In66       In  0.25522932  0.19740561  0.12814599     1.36900
C67         C  0.27020958  0.17070294  0.17742163     0.77200
O68         O  0.32492363  0.19708200  0.16496723    -0.61200
O69         O  0.29629373  0.23713839  0.15588995    -0.52100
C70         C  0.24035262  0.17167202  0.07862226     0.69900
O71         O  0.23339069  0.15953063  0.09329693    -0.47000
C72         C  0.18130587  0.22459718  0.08478605     0.74600
O73         O  0.27656736  0.15893593  0.16217947    -0.58800
O74         O  0.21531471  0.23773772  0.10136758    -0.48900
O75         O  0.25479911  0.19575422  0.16666982    -0.55300
C76         C  0.32977893  0.22365123  0.17169075     0.84800
O77         O  0.25600644  0.19660572  0.08991105    -0.57100
O78         O  0.18534605  0.19789998  0.09077166    -0.60400
In79       In  0.19926199  0.13788185  0.49113601     1.36900
C80         C  0.12233943  0.16081820  0.44629278     0.77200
O81         O  0.20715738  0.13570745  0.03445443    -0.61200
O82         O  0.23758938  0.16993859  0.03568051    -0.52100
C83         C  0.21996608  0.08246372  0.00153142     0.69900
O84         O  0.18191035  0.09109117  0.47883297    -0.47000
C85         C  0.21911714  0.15130516  0.46051860     0.74600
O86         O  0.12895268  0.13433180  0.45408718    -0.58800
O87         O  0.24392747  0.15665302  0.99278553    -0.48900
O88         O  0.15478171  0.17521635  0.46122382    -0.55300
C89         C  0.22876991  0.15853613  0.04927275     0.84800
O90         O  0.24752381  0.10225014  0.01991734    -0.57100
O91         O  0.18465538  0.13932213  0.44445481    -0.60400
In92       In  0.31272655  0.76443286  0.01421802     1.36900
C93         C  0.38734019  0.73818133  0.05812019     0.77200
O94         O  0.32774405  0.76382705  0.06115672    -0.61200
O95         O  0.26665458  0.74890570  0.01239812    -0.52100
C96         C  0.29837994  0.82084616  0.00660668     0.69900
O97         O  0.33531422  0.81028743  0.02817120    -0.47000
C98         C  0.28041259  0.74364611  0.45488037     0.74600
O99         O  0.38323677  0.76486175  0.05176547    -0.58800
O100        O  0.27162324  0.73297965  0.46876183    -0.48900
O101        O  0.35351877  0.72517734  0.04207800    -0.55300
C102        C  0.29225907  0.75376071  0.04492527     0.84800
O103        O  0.26869394  0.80247043  0.48778587    -0.57100
O104        O  0.30336373  0.76590705  0.46999562    -0.60400
In105      In  0.50562036  0.20028862  0.37847740     1.36900
C106        C  0.52080466  0.22733132  0.42767966     0.77200
O107        O  0.43602076  0.19969259  0.34188056    -0.61200
O108        O  0.46532124  0.16005142  0.35092383    -0.52100
C109        C  0.48990138  0.22639287  0.32865596     0.69900
O110        O  0.48293358  0.23822380  0.34343380    -0.47000
C111        C  0.08044669  0.17431177  0.42189595     0.74600
O112        O  0.52702045  0.23892929  0.41225562    -0.58800
O113        O  0.04744900  0.16085406  0.40730529    -0.48900
O114        O  0.00561924  0.20220681  0.41726971    -0.55300
C115        C  0.43157952  0.17316517  0.33509382     0.84800
O116        O  0.50596687  0.20154828  0.33996754    -0.57100
O117        O  0.07494311  0.20066826  0.41408010    -0.60400
In118      In  0.31341697  0.13564084  0.26547606     1.36900
C119        C  0.38997853  0.15917771  0.31044182     0.77200
O120        O  0.30487433  0.13452903  0.22175485    -0.61200
O121        O  0.27349209  0.16768632  0.22068171    -0.52100
C122        C  0.29057449  0.08060510  0.25331449     0.69900
O123        O  0.32868181  0.08841231  0.27416769    -0.47000
C124        C  0.29699807  0.14812512  0.29878084     0.74600
O125        O  0.38409692  0.13255707  0.30333957    -0.58800
O126        O  0.27212334  0.15543597  0.26695089    -0.48900
O127        O  0.35701105  0.17333586  0.29458077    -0.55300
C128        C  0.28242567  0.15703870  0.20691265     0.84800
O129        O  0.26401503  0.10102333  0.23746659    -0.57100
O130        O  0.32960731  0.13443572  0.31296145    -0.60400
In131      In  0.18961765  0.76408768  0.23572358     1.36900
C132        C  0.11513829  0.73783004  0.19220425     0.77200
O133        O  0.17382926  0.76332584  0.18838112    -0.61200
O134        O  0.23528953  0.74872181  0.23703957    -0.52100
C135        C  0.20484726  0.82038859  0.24439106     0.69900
O136        O  0.16765530  0.81008400  0.22173436    -0.47000
C137        C  0.22174303  0.74329445  0.29492640     0.74600
O138        O  0.11929037  0.76450561  0.19858807    -0.58800
O139        O  0.23154710  0.73308404  0.28166993    -0.48900
O140        O  0.14889095  0.72480296  0.20807914    -0.55300
C141        C  0.20923848  0.75332525  0.20438313     0.84800
O142        O  0.23422244  0.80180349  0.26353259    -0.57100
O143        O  0.19767151  0.76501100  0.27912793    -0.60400
In144      In  0.00110009  0.69484177  0.12504919     1.36900
C145        C  0.98494570  0.66863150  0.07497182     0.77200
O146        O  0.43133471  0.69648328  0.08831771    -0.61200
O147        O  0.46231194  0.73552039  0.09830702    -0.52100
C148        C  0.01718761  0.66785232  0.17481346     0.69900
O149        O  0.02526782  0.65679742  0.16057704    -0.47000
C150        C  0.07437284  0.72282626  0.16815785     0.74600
O151        O  0.97674198  0.65724808  0.08900901    -0.58800
O152        O  0.04026807  0.73528442  0.15234058    -0.48900
O153        O  0.00277655  0.69289989  0.08736447    -0.55300
C154        C  0.42806657  0.72310474  0.08221704     0.84800
O155        O  0.99938801  0.69216055  0.16269839    -0.57100
O156        O  0.07088470  0.69626977  0.16174501    -0.60400
C157        C  0.27827402  0.05015562  0.24900814    -0.03700
C158        C  0.30910857  0.02820043  0.26746336    -0.09400
C159        C  0.29820508  0.99972723  0.26593259    -0.17100
C160        C  0.25642881  0.99288322  0.24600988     0.25000
C161        C  0.22531124  0.01450165  0.22689139    -0.18800
C162        C  0.23613286  0.04298257  0.22833093    -0.07700
C163        C  0.24588378  0.96385437  0.24605777    -0.14100
C164        C  0.23797799  0.93945229  0.24685487    -0.13900
C165        C  0.22955555  0.91000489  0.24794127     0.24900
C166        C  0.18755369  0.90019855  0.22352120    -0.19300
C167        C  0.17944055  0.87113514  0.22317130    -0.07700
C168        C  0.21331129  0.85155871  0.24721355    -0.03800
C169        C  0.25539870  0.86175917  0.27233737    -0.09100
C170        C  0.26343990  0.89082061  0.27266942    -0.16800
H171        H  0.34181364  0.03313384  0.28365331     0.11400
H172        H  0.32252540  0.98314405  0.28079119     0.10700
H173        H  0.19287470  0.00943782  0.21136761     0.10600
H174        H  0.21178032  0.05948938  0.21396634     0.11100
H175        H  0.16109059  0.91487845  0.20429448     0.11200
H176        H  0.14671370  0.86383901  0.20349667     0.11200
H177        H  0.28208075  0.84714559  0.29114168     0.11300
H178        H  0.29607318  0.89819919  0.29172655     0.10100
C179        C  0.28206666  0.74849545  0.06298351    -0.03700
C180        C  0.24135479  0.73919660  0.04411567    -0.09400
C181        C  0.23193846  0.73536549  0.06157881    -0.17100
C182        C  0.26315851  0.74068090  0.09801998     0.25000
C183        C  0.30386341  0.74955067  0.11696966    -0.18800
C184        C  0.31328161  0.75343318  0.09961293    -0.07700
C185        C  0.25328449  0.73828653  0.11593756    -0.14100
C186        C  0.24585510  0.73808923  0.13163577    -0.13900
C187        C  0.23656351  0.74005574  0.15001098     0.24900
C188        C  0.26906111  0.73691077  0.18690015    -0.19300
C189        C  0.26022681  0.74067043  0.20479597    -0.07700
C190        C  0.21883079  0.74781071  0.18591832    -0.03800
C191        C  0.18632445  0.75045615  0.14885288    -0.09100
C192        C  0.19514972  0.74657219  0.13105253    -0.16800
H193        H  0.21674082  0.73527581  0.01588738     0.11400
H194        H  0.20024136  0.72860700  0.04662381     0.10700
H195        H  0.32821415  0.75382347  0.14512759     0.10600
H196        H  0.34494199  0.76057449  0.11484527     0.11100
H197        H  0.30129663  0.73198864  0.20185184     0.11200
H198        H  0.28582601  0.73854299  0.23335054     0.11200
H199        H  0.15409487  0.75583489  0.13361063     0.11300
H200        H  0.16978856  0.74913021  0.10253758     0.10100
C201        C  0.22912721  0.15803441  0.44258080    -0.03700
C202        C  0.26971956  0.16791293  0.46169187    -0.09400
C203        C  0.27923508  0.17262509  0.44441438    -0.17100
C204        C  0.24817603  0.16769305  0.40792334     0.25000
C205        C  0.20749220  0.15847276  0.38869754    -0.18800
C206        C  0.19800593  0.15365762  0.40587551    -0.07700
C207        C  0.25838993  0.17020738  0.39030799    -0.14100
C208        C  0.26571919  0.16967197  0.37456373    -0.13900
C209        C  0.27429093  0.16595458  0.35582817     0.24900
C210        C  0.24442935  0.17464199  0.32042580    -0.19300
C211        C  0.25183342  0.16915870  0.30171734    -0.07700
C212        C  0.28911843  0.15482309  0.31828357    -0.03800
C213        C  0.31909938  0.14650922  0.35394499    -0.09100
C214        C  0.31168923  0.15203156  0.37255435    -0.16800
H215        H  0.29425457  0.17139887  0.48999575     0.11400
H216        H  0.31093718  0.17959371  0.45957041     0.10700
H217        H  0.18330519  0.15445624  0.36049943     0.10600
H218        H  0.16643097  0.14612553  0.39047320     0.11100
H219        H  0.21521681  0.18526544  0.30717345     0.11200
H220        H  0.22826312  0.17579069  0.27427877     0.11200
H221        H  0.34814546  0.13547580  0.36739826     0.11300
H222        H  0.33486477  0.14505756  0.39985996     0.10100
C223        C  0.23120750  0.05182002  0.00525745    -0.03700
C224        C  0.19903540  0.03086047  0.48325416    -0.09400
C225        C  0.20928997  0.00222635  0.48464166    -0.17100
C226        C  0.25177847  0.99418067  0.00801341     0.25000
C227        C  0.28413676  0.01479449  0.03058247    -0.18800
C228        C  0.27393434  0.04347409  0.02924549    -0.07700
C229        C  0.26186698  0.96493973  0.00806875    -0.14100
C230        C  0.26902013  0.94032700  0.00708960    -0.13900
C231        C  0.27632867  0.91067422  0.00549000     0.24900
C232        C  0.31784347  0.90060483  0.02808111    -0.19300
C233        C  0.32498960  0.87146199  0.02767776    -0.07700
C234        C  0.29063598  0.85206116  0.00466555    -0.03800
C235        C  0.24897891  0.86249368  0.48147095    -0.09100
C236        C  0.24190547  0.89162806  0.48191281    -0.16800
H237        H  0.16586640  0.03670134  0.46448127     0.11400
H238        H  0.18399747  0.98644273  0.46708682     0.10700
H239        H  0.31714992  0.00880041  0.04880139     0.10600
H240        H  0.29934847  0.05920993  0.04642268     0.11100
H241        H  0.34472550  0.91516743  0.04640924     0.11200
H242        H  0.35741843  0.86399323  0.04589952     0.11200
H243        H  0.22194340  0.84801983  0.46354811     0.11300
H244        H  0.20963617  0.89919774  0.46428151     0.10100
C245        C  0.46798418  0.54841815  0.99792888    -0.03700
C246        C  0.01021213  0.53925540  0.52116144    -0.09400
C247        C  0.01907864  0.51040864  0.52162371    -0.17100
C248        C  0.48588494  0.49036862  0.49894532     0.25000
C249        C  0.44384677  0.49914484  0.47641314    -0.18800
C250        C  0.43491557  0.52801656  0.97589588    -0.07700
C251        C  0.49489034  0.46102015  0.49814802    -0.14100
C252        C  0.50270710  0.43655152  0.49743861    -0.13900
C253        C  0.51241274  0.40725627  0.49722419     0.24900
C254        C  0.48029410  0.38631347  0.47701816    -0.19300
C255        C  0.49011715  0.35756200  0.97826072    -0.07700
C256        C  0.03224804  0.34941607  0.99979077    -0.03800
C257        C  0.06414695  0.37068696  0.51934881    -0.09100
C258        C  0.05425031  0.39944356  0.51805472    -0.16800
H259        H  0.03629351  0.55452095  0.53836740     0.11400
H260        H  0.05173825  0.50384439  0.53921768     0.10700
H261        H  0.41791494  0.48379594  0.45880621     0.10600
H262        H  0.40209416  0.53448560  0.95771511     0.11100
H263        H  0.44780561  0.39211773  0.46079904     0.11200
H264        H  0.46494772  0.34160299  0.96302923     0.11200
H265        H  0.09687713  0.36500151  0.53623063     0.11300
H266        H  0.07935757  0.41548525  0.53378033     0.10100
C267        C  0.97082445  0.65304738  0.43697389    -0.03700
C268        C  0.01189832  0.66159083  0.45608038    -0.09400
C269        C  0.02129802  0.66565759  0.43863574    -0.17100
C270        C  0.48967448  0.66140377  0.40197053     0.25000
C271        C  0.44857465  0.65341687  0.38277507    -0.18800
C272        C  0.43919075  0.64924551  0.40012501    -0.07700
C273        C  0.49958050  0.66375984  0.38408416    -0.14100
C274        C  0.00718399  0.66370774  0.36852015    -0.13900
C275        C  0.01685161  0.66112802  0.35047322     0.24900
C276        C  0.48634516  0.66819625  0.31450400    -0.19300
C277        C  0.49519293  0.66383940  0.29668398    -0.07700
C278        C  0.03460603  0.65226579  0.31472147    -0.03800
C279        C  0.06521567  0.64569317  0.35094116    -0.09100
C280        C  0.05636126  0.65008328  0.36865086    -0.16800
H281        H  0.03684144  0.66460184  0.48448747     0.11400
H282        H  0.05330242  0.67170234  0.45377480     0.10700
H283        H  0.42391207  0.64996471  0.35443684     0.10600
H284        H  0.40724195  0.64273096  0.38472071     0.11100
H285        H  0.45555848  0.67664642  0.30014318     0.11200
H286        H  0.47108172  0.66908628  0.26878888     0.11200
H287        H  0.09588500  0.63680087  0.36553530     0.11300
H288        H  0.08012740  0.64443444  0.39642854     0.10100
C289        C  0.03796568  0.24568458  0.06735815    -0.03700
C290        C  0.49945106  0.23298977  0.05009445    -0.09400
C291        C  0.49135010  0.22827751  0.06841041    -0.17100
C292        C  0.02170702  0.23611664  0.10411864     0.25000
C293        C  0.06031875  0.24839415  0.12154442    -0.18800
C294        C  0.06843860  0.25313730  0.10332398    -0.07700
C295        C  0.01264459  0.23299306  0.12256681    -0.14100
C296        C  0.00516135  0.23250273  0.13820880    -0.13900
C297        C  0.99533219  0.23452701  0.15615699     0.24900
C298        C  0.02714228  0.23036215  0.19284903    -0.19300
C299        C  0.01795074  0.23441763  0.21043810    -0.07700
C300        C  0.47690056  0.24286611  0.19144754    -0.03800
C301        C  0.44503118  0.24649130  0.15454748    -0.09100
C302        C  0.45420879  0.24232281  0.13704849    -0.16800
H303        H  0.47547474  0.22704670  0.02241494     0.11400
H304        H  0.46124556  0.21889065  0.05463073     0.10700
H305        H  0.08393939  0.25466644  0.14911366     0.10600
H306        H  0.09842535  0.26291035  0.11731641     0.11100
H307        H  0.05916192  0.22447285  0.20791041     0.11200
H308        H  0.04306237  0.23153671  0.23887896     0.11200
H309        H  0.41308774  0.25291521  0.13923342     0.11300
H310        H  0.42940537  0.24570779  0.10868403     0.10100
C311        C  0.47745153  0.34753474  0.25512708    -0.03700
C312        C  0.44481616  0.36830118  0.23427097    -0.09400
C313        C  0.45410186  0.39717844  0.23533414    -0.17100
C314        C  0.49606137  0.40562798  0.25722017     0.25000
C315        C  0.02889001  0.38520189  0.27871445    -0.18800
C316        C  0.01967367  0.35630516  0.27772659    -0.07700
C317        C  0.00516366  0.43505058  0.25674649    -0.14100
C318        C  0.01228124  0.45964399  0.25566070    -0.13900
C319        C  0.02036551  0.48911407  0.25426501     0.24900
C320        C  0.06165998  0.49792966  0.27452550    -0.19300
C321        C  0.06980973  0.52684394  0.27432992    -0.07700
C322        C  0.03667398  0.54725487  0.25380368    -0.03800
C323        C  0.49512454  0.53808610  0.23290957    -0.09100
C324        C  0.48705849  0.50919115  0.23318450    -0.16800
H325        H  0.41201254  0.36212388  0.21659076     0.11400
H326        H  0.42845457  0.41281806  0.21861705     0.10700
H327        H  0.06148385  0.39151441  0.29576226     0.10600
H328        H  0.04540003  0.34073262  0.29398246     0.11100
H329        H  0.08766406  0.48255238  0.29088942     0.11200
H330        H  0.10212906  0.53333103  0.29074775     0.11200
H331        H  0.46903283  0.55336339  0.21696734     0.11300
H332        H  0.45496912  0.50259974  0.21737050     0.10100
In333      In  0.25140179  0.70345858  0.87511813     1.36900
C334        C  0.26755014  0.73020093  0.92500826     0.77200
O335        O  0.18151153  0.70198728  0.83794135    -0.61200
O336        O  0.21264679  0.66271005  0.84890524    -0.52100
C337        C  0.23483807  0.72997564  0.82494349     0.69900
O338        O  0.22654268  0.74106824  0.83900071    -0.47000
C339        C  0.32482797  0.67572153  0.91783750     0.74600
O340        O  0.27522287  0.74145404  0.91052932    -0.58800
O341        O  0.29080630  0.66302105  0.90189410    -0.48900
O342        O  0.25022691  0.70574349  0.91315887    -0.55300
C343        C  0.17829842  0.67527356  0.83233372     0.84800
O344        O  0.25304813  0.70581247  0.83738911    -0.57100
O345        O  0.32113867  0.70236749  0.91167493    -0.60400
In346      In  0.44781655  0.26102896  0.74098013     1.36900
C347        C  0.37146333  0.23741289  0.69619880     0.77200
O348        O  0.43224386  0.25987562  0.69376687    -0.61200
O349        O  0.99274803  0.24387618  0.74221828    -0.52100
C350        C  0.46708274  0.31669782  0.75147159     0.69900
O351        O  0.42929302  0.30762951  0.72930789    -0.47000
C352        C  0.97790538  0.23980650  0.79920106     0.74600
O353        O  0.37736006  0.26404805  0.70314468    -0.58800
O354        O  0.98697633  0.22890703  0.78562675    -0.48900
O355        O  0.40438643  0.22315890  0.71204523    -0.55300
C356        C  0.46717624  0.24889289  0.70972233     0.84800
O357        O  0.99514411  0.29719057  0.76931387    -0.57100
O358        O  0.45571348  0.26240330  0.78430257    -0.60400
In359      In  0.06269595  0.63429765  0.76441008     1.36900
C360        C  0.13750394  0.66028375  0.80824990     0.77200
O361        O  0.05449081  0.63285549  0.72082491    -0.61200
O362        O  0.52023520  0.66468429  0.71790374    -0.52100
C363        C  0.04577557  0.57823150  0.75605228     0.69900
O364        O  0.08298887  0.58787837  0.77655359    -0.47000
C365        C  0.04397087  0.64629833  0.79616738     0.74600
O366        O  0.13342881  0.63345912  0.80263259    -0.58800
O367        O  0.51859661  0.65202889  0.76385234    -0.48900
O368        O  0.10357275  0.67353910  0.79148630    -0.55300
C369        C  0.03019909  0.65446564  0.70478982     0.84800
O370        O  0.51710783  0.59731013  0.73860739    -0.57100
O371        O  0.07836558  0.63463659  0.81167197    -0.60400
In372      In  0.44087678  0.63534877  0.98594321     1.36900
C373        C  0.36578652  0.66094305  0.94189076     0.77200
O374        O  0.44878542  0.63352971  0.52932071    -0.61200
O375        O  0.98180754  0.66629267  0.53179121    -0.52100
C376        C  0.45829825  0.57934011  0.49495787     0.69900
O377        O  0.42077414  0.58891108  0.97302215    -0.47000
C378        C  0.96081430  0.64721279  0.95506440     0.74600
O379        O  0.37030810  0.63421323  0.94819263    -0.58800
O380        O  0.98618811  0.65222597  0.48750433    -0.48900
O381        O  0.39941484  0.67429807  0.95799116    -0.55300
C382        C  0.97223624  0.65553667  0.54504541     0.84800
O383        O  0.98688135  0.59848231  0.51325996    -0.57100
O384        O  0.42573519  0.63636388  0.93894606    -0.60400
In385      In  0.06390753  0.26314879  0.51537436     1.36900
C386        C  0.13991961  0.23884703  0.56021467     0.77200
O387        O  0.08029709  0.26390465  0.56300578    -0.61200
O388        O  0.52107493  0.24521630  0.51606183    -0.52100
C389        C  0.04331469  0.31866186  0.50377406     0.69900
O390        O  0.08112022  0.31005527  0.52473596    -0.47000
C391        C  0.53289444  0.24129271  0.95698008     0.74600
O392        O  0.13462407  0.26555519  0.55361701    -0.58800
O393        O  0.52393422  0.23089089  0.97082643    -0.48900
O394        O  0.10661472  0.22492942  0.54393361    -0.55300
C395        C  0.04653247  0.25167238  0.54821311     0.84800
O396        O  0.51590162  0.29878356  0.98753066    -0.57100
O397        O  0.05526284  0.26383874  0.97158039    -0.60400
In398      In  0.25523463  0.19740707  0.62814855     1.36900
C399        C  0.27020772  0.17070128  0.67741891     0.77200
O400        O  0.32493061  0.19708609  0.66497507    -0.61200
O401        O  0.29629505  0.23714137  0.65589182    -0.52100
C402        C  0.24036686  0.17167610  0.57862877     0.69900
O403        O  0.23340264  0.15953306  0.59330106    -0.47000
C404        C  0.18130957  0.22459628  0.58478631     0.74600
O405        O  0.27657090  0.15893621  0.66217989    -0.58800
O406        O  0.21531784  0.23773786  0.60136816    -0.48900
O407        O  0.25479641  0.19575238  0.66666706    -0.55300
C408        C  0.32978235  0.22365581  0.67169527     0.84800
O409        O  0.25601793  0.19661041  0.58991758    -0.57100
O410        O  0.18535089  0.19789909  0.59077228    -0.60400
In411      In  0.19923754  0.13787555  0.99112531     1.36900
C412        C  0.12231818  0.16081659  0.94628427     0.77200
O413        O  0.20718226  0.13571018  0.53446500    -0.61200
O414        O  0.23760705  0.16994643  0.53568911    -0.52100
C415        C  0.21998587  0.08246946  0.50153558     0.69900
O416        O  0.18188975  0.09108373  0.97882976    -0.47000
C417        C  0.21908504  0.15129273  0.96050068     0.74600
O418        O  0.12892739  0.13432942  0.95407511    -0.58800
O419        O  0.24395768  0.15666198  0.49280379    -0.48900
O420        O  0.15476282  0.17521304  0.96121802    -0.55300
C421        C  0.22878917  0.15854111  0.54928146     0.84800
O422        O  0.24754550  0.10225442  0.51992599    -0.57100
O423        O  0.18462450  0.13931002  0.94444036    -0.60400
In424      In  0.31272528  0.76443344  0.51421737     1.36900
C425        C  0.38733983  0.73818189  0.55812056     0.77200
O426        O  0.32773140  0.76383050  0.56115038    -0.61200
O427        O  0.26664678  0.74890571  0.51238970    -0.52100
C428        C  0.29838318  0.82084720  0.50660865     0.69900
O429        O  0.33531714  0.81028689  0.52817751    -0.47000
C430        C  0.28041476  0.74364762  0.95488071     0.74600
O431        O  0.38323497  0.76486103  0.55175981    -0.58800
O432        O  0.27162043  0.73298222  0.96875878    -0.48900
O433        O  0.35352007  0.72517968  0.54208510    -0.55300
C434        C  0.29224564  0.75376251  0.54491547     0.84800
O435        O  0.26869239  0.80246805  0.98778934    -0.57100
O436        O  0.30336987  0.76590661  0.96999930    -0.60400
In437      In  0.50560443  0.20029465  0.87847117     1.36900
C438        C  0.52079416  0.22733781  0.92767647     0.77200
O439        O  0.43600440  0.19969550  0.84187428    -0.61200
O440        O  0.46530848  0.16005606  0.85091836    -0.52100
C441        C  0.48988834  0.22640199  0.82865174     0.69900
O442        O  0.48291314  0.23822993  0.84342527    -0.47000
C443        C  0.08042731  0.17431289  0.92188830     0.74600
O444        O  0.52701554  0.23893346  0.91225564    -0.58800
O445        O  0.04742788  0.16085752  0.90729690    -0.48900
O446        O  0.00559959  0.20221586  0.91726126    -0.55300
C447        C  0.43156565  0.17316803  0.83508831     0.84800
O448        O  0.50595739  0.20155848  0.83996523    -0.57100
O449        O  0.07492730  0.20066957  0.91407407    -0.60400
In450      In  0.31340661  0.13563736  0.76546877     1.36900
C451        C  0.38996619  0.15917840  0.81043655     0.77200
O452        O  0.30486903  0.13452642  0.72175044    -0.61200
O453        O  0.27348109  0.16768149  0.72067326    -0.52100
C454        C  0.29057510  0.08059957  0.75331190     0.69900
O455        O  0.32868126  0.08841040  0.77416604    -0.47000
C456        C  0.29697690  0.14811727  0.79876644     0.74600
O457        O  0.38408773  0.13255772  0.80333535    -0.58800
O458        O  0.27210528  0.15542927  0.76693737    -0.48900
O459        O  0.35699681  0.17333448  0.79457421    -0.55300
C460        C  0.28241921  0.15703549  0.70690713     0.84800
O461        O  0.26401118  0.10101524  0.73746042    -0.57100
O462        O  0.32958871  0.13443005  0.81294961    -0.60400
In463      In  0.18961563  0.76408040  0.73571754     1.36900
C464        C  0.11513624  0.73782387  0.69220039     0.77200
O465        O  0.17381918  0.76331570  0.68837116    -0.61200
O466        O  0.23528009  0.74870972  0.73702740    -0.52100
C467        C  0.20485120  0.82038009  0.74438419     0.69900
O468        O  0.16765803  0.81007786  0.72173144    -0.47000
C469        C  0.22174731  0.74329235  0.79492461     0.74600
O470        O  0.11928853  0.76449998  0.69858175    -0.58800
O471        O  0.23154562  0.73307813  0.78166493    -0.48900
O472        O  0.14888924  0.72479546  0.70807822    -0.55300
C473        C  0.20922580  0.75331222  0.70437027     0.84800
O474        O  0.23422426  0.80179331  0.76352174    -0.57100
O475        O  0.19767731  0.76500968  0.77912644    -0.60400
In476      In  0.00109644  0.69483817  0.62504542     1.36900
C477        C  0.98493495  0.66862219  0.57496641     0.77200
O478        O  0.43133318  0.69648367  0.58831967    -0.61200
O479        O  0.46231012  0.73551784  0.59830096    -0.52100
C480        C  0.01718721  0.66785378  0.67481369     0.69900
O481        O  0.02526654  0.65679639  0.66057749    -0.47000
C482        C  0.07437019  0.72282099  0.66815340     0.74600
O483        O  0.97673318  0.65724196  0.58900630    -0.58800
O484        O  0.04026577  0.73528015  0.65233558    -0.48900
O485        O  0.00276781  0.69289016  0.58735734    -0.55300
C486        C  0.42806544  0.72310434  0.58221589     0.84800
O487        O  0.99938602  0.69216131  0.66269574    -0.57100
O488        O  0.07088109  0.69626448  0.66174030    -0.60400
C489        C  0.27828051  0.05014888  0.74900807    -0.03700
C490        C  0.30911769  0.02819577  0.76746087    -0.09400
C491        C  0.29821911  0.99972108  0.76593088    -0.17100
C492        C  0.25644493  0.99287369  0.74601152     0.25000
C493        C  0.22532502  0.01449025  0.72689628    -0.18800
C494        C  0.23614180  0.04297248  0.72833493    -0.07700
C495        C  0.24590380  0.96384328  0.74605907    -0.14100
C496        C  0.23799723  0.93944077  0.74685408    -0.13900
C497        C  0.22957086  0.90999382  0.74793743     0.24900
C498        C  0.18756777  0.90019048  0.72351801    -0.19300
C499        C  0.17945077  0.87112787  0.72316671    -0.07700
C500        C  0.21331914  0.85154939  0.74720703    -0.03800
C501        C  0.25540788  0.86174676  0.77232978    -0.09100
C502        C  0.26345284  0.89080736  0.77266323    -0.16800
H503        H  0.34182197  0.03313188  0.78364803     0.11400
H504        H  0.32254108  0.98313953  0.78078727     0.10700
H505        H  0.19289019  0.00942382  0.71137537     0.10600
H506        H  0.21178729  0.05947770  0.71397243     0.11100
H507        H  0.16110596  0.91487250  0.70429301     0.11200
H508        H  0.14672371  0.86383400  0.70349340     0.11200
H509        H  0.28208793  0.84713166  0.79113267     0.11300
H510        H  0.29608671  0.89818348  0.79171946     0.10100
C511        C  0.28204690  0.74849577  0.56296875    -0.03700
C512        C  0.24133924  0.73918320  0.54409913    -0.09400
C513        C  0.23191793  0.73534695  0.56155810    -0.17100
C514        C  0.26312863  0.74067141  0.59799654     0.25000
C515        C  0.30382888  0.74955605  0.61694774    -0.18800
C516        C  0.31325223  0.75344341  0.59959539    -0.07700
C517        C  0.25324969  0.73827085  0.61590989    -0.14100
C518        C  0.24582006  0.73807014  0.63160781    -0.13900
C519        C  0.23653358  0.74003479  0.64998677     0.24900
C520        C  0.26903817  0.73690142  0.68687750    -0.19300
C521        C  0.26020952  0.74066267  0.70477727    -0.07700
C522        C  0.21881180  0.74779356  0.68590155    -0.03800
C523        C  0.18629813  0.75042661  0.64883452    -0.09100
C524        C  0.19511790  0.74654058  0.63103026    -0.16800
H525        H  0.21673337  0.73525445  0.51587361     0.11400
H526        H  0.20022456  0.72857646  0.54660206     0.10700
H527        H  0.32817222  0.75383616  0.64510352     0.10600
H528        H  0.34490822  0.76059532  0.61482859     0.11100
H529        H  0.30127569  0.73198751  0.70182780     0.11200
H530        H  0.28581363  0.73854520  0.73333244     0.11200
H531        H  0.15406714  0.75579782  0.63359385     0.11300
H532        H  0.16975208  0.74908962  0.60251476     0.10100
C533        C  0.22909208  0.15801802  0.94255984    -0.03700
C534        C  0.26968147  0.16790043  0.96166735    -0.09400
C535        C  0.27919464  0.17260976  0.94438775    -0.17100
C536        C  0.24813646  0.16767076  0.90789816     0.25000
C537        C  0.20745565  0.15844592  0.88867584    -0.18800
C538        C  0.19797158  0.15363373  0.90585589    -0.07700
C539        C  0.25834816  0.17018423  0.89028103    -0.14100
C540        C  0.26567809  0.16964944  0.87453724    -0.13900
C541        C  0.27425377  0.16593414  0.85580432     0.24900
C542        C  0.24440393  0.17463499  0.82040768    -0.19300
C543        C  0.25181275  0.16915545  0.80170201    -0.07700
C544        C  0.28909122  0.15481064  0.81826563    -0.03800
C545        C  0.31906020  0.14648303  0.85392137    -0.09100
C546        C  0.31164508  0.15200120  0.87252769    -0.16800
H547        H  0.29421569  0.17139196  0.98997002     0.11400
H548        H  0.31089482  0.17958237  0.95954141     0.10700
H549        H  0.18326935  0.15442373  0.86047893     0.10600
H550        H  0.16639916  0.14609814  0.89045642     0.11100
H551        H  0.21519640  0.18526654  0.80715742     0.11200
H552        H  0.22825158  0.17579808  0.77426761     0.11200
H553        H  0.34810127  0.13544176  0.86737279     0.11300
H554        H  0.33481114  0.14501703  0.89982847     0.10100
C555        C  0.23122399  0.05182548  0.50525804    -0.03700
C556        C  0.19902119  0.03085287  0.98325892    -0.09400
C557        C  0.20927783  0.00221912  0.98464748    -0.17100
C558        C  0.25179067  0.99418535  0.50801179     0.25000
C559        C  0.28415081  0.01479717  0.53058511    -0.18800
C560        C  0.27395065  0.04347722  0.52924932    -0.07700
C561        C  0.26187779  0.96494356  0.50806842    -0.14100
C562        C  0.26903018  0.94033003  0.50709093    -0.13900
C563        C  0.27633712  0.91067640  0.50549244     0.24900
C564        C  0.31785173  0.90060515  0.52808603    -0.19300
C565        C  0.32499621  0.87146185  0.52768278    -0.07700
C566        C  0.29064106  0.85206242  0.50466814    -0.03800
C567        C  0.24897350  0.86249067  0.98147042    -0.09100
C568        C  0.24189841  0.89162460  0.98191227    -0.16800
H569        H  0.16585196  0.03669187  0.96448890     0.11400
H570        H  0.18398720  0.98643412  0.96709632     0.10700
H571        H  0.31716440  0.00880124  0.54880728     0.10600
H572        H  0.29936556  0.05921079  0.54643000     0.11100
H573        H  0.34473447  0.91516658  0.54641522     0.11200
H574        H  0.35742468  0.86399181  0.54590601     0.11200
H575        H  0.22193965  0.84801609  0.96354986     0.11300
H576        H  0.20962903  0.89919260  0.96428282     0.10100
C577        C  0.46797273  0.54840384  0.49793077    -0.03700
C578        C  0.01022200  0.53926734  0.02115672    -0.09400
C579        C  0.01908494  0.51041932  0.02161919    -0.17100
C580        C  0.48588925  0.49038009  0.99894408     0.25000
C581        C  0.44385269  0.49915870  0.97641471    -0.18800
C582        C  0.43490615  0.52800133  0.47589476    -0.07700
C583        C  0.49489154  0.46102975  0.99814777    -0.14100
C584        C  0.50270766  0.43655988  0.99744050    -0.13900
C585        C  0.51241345  0.40726332  0.99722922     0.24900
C586        C  0.48029605  0.38631956  0.97702944    -0.19300
C587        C  0.49011527  0.35755655  0.47824732    -0.07700
C588        C  0.03224744  0.34941068  0.49978154    -0.03800
C589        C  0.06414629  0.37069315  0.01935237    -0.09100
C590        C  0.05424969  0.39945047  0.01805604    -0.16800
H591        H  0.03630434  0.55453188  0.03836003     0.11400
H592        H  0.05174413  0.50385315  0.03921162     0.10700
H593        H  0.41791959  0.48381048  0.95881091     0.10600
H594        H  0.40208361  0.53446875  0.45771147     0.11100
H595        H  0.44780835  0.39212381  0.96081321     0.11200
H596        H  0.46494507  0.34159802  0.46301145     0.11200
H597        H  0.09687544  0.36500793  0.03623046     0.11300
H598        H  0.07935624  0.41549296  0.03377698     0.10100
C599        C  0.97085961  0.65308673  0.93699527    -0.03700
C600        C  0.01193798  0.66162378  0.95610723    -0.09400
C601        C  0.02134025  0.66569824  0.93866524    -0.17100
C602        C  0.48971521  0.66145879  0.90199761     0.25000
C603        C  0.44861094  0.65347915  0.88279703    -0.18800
C604        C  0.43922450  0.64930006  0.90014416    -0.07700
C605        C  0.49962311  0.66381961  0.88411284    -0.14100
C606        C  0.00722503  0.66376758  0.86854762    -0.13900
C607        C  0.01688883  0.66118304  0.85049806     0.24900
C608        C  0.48638311  0.66825440  0.81452960    -0.19300
C609        C  0.49522441  0.66388888  0.79670568    -0.07700
C610        C  0.03463010  0.65230342  0.81473856    -0.03800
C611        C  0.06523961  0.64572872  0.85095767    -0.09100
C612        C  0.05639170  0.65012737  0.86867120    -0.16800
H613        H  0.03688224  0.66462375  0.98451605     0.11400
H614        H  0.05334804  0.67173696  0.95380824     0.10700
H615        H  0.42394745  0.65003794  0.85445732     0.10600
H616        H  0.40727166  0.64279134  0.88473524     0.11100
H617        H  0.45560243  0.67671303  0.80017249     0.11200
H618        H  0.47111398  0.66913760  0.76881174     0.11200
H619        H  0.09590311  0.63682777  0.86554807     0.11300
H620        H  0.08015688  0.64447571  0.89644790     0.10100
C621        C  0.03796770  0.24569742  0.56735849    -0.03700
C622        C  0.49945422  0.23300272  0.55009732    -0.09400
C623        C  0.49135332  0.22829580  0.56841404    -0.17100
C624        C  0.02170908  0.23614040  0.60412049     0.25000
C625        C  0.06031900  0.24841896  0.62154347    -0.18800
C626        C  0.06843893  0.25315675  0.60332235    -0.07700
C627        C  0.01264855  0.23301855  0.62257034    -0.14100
C628        C  0.00516639  0.23252642  0.63821320    -0.13900
C629        C  0.99533724  0.23454657  0.65616181     0.24900
C630        C  0.02715170  0.23039277  0.69285593    -0.19300
C631        C  0.01795896  0.23444497  0.71044456    -0.07700
C632        C  0.47690308  0.24287944  0.69145135    -0.03800
C633        C  0.44502933  0.24649253  0.65454932    -0.09100
C634        C  0.45420811  0.24232702  0.63705079    -0.16800
H635        H  0.47547882  0.22705507  0.52241916     0.11400
H636        H  0.46125058  0.21890793  0.55463666     0.10700
H637        H  0.08393869  0.25469561  0.64911126     0.10600
H638        H  0.09842408  0.26292988  0.61731246     0.11100
H639        H  0.05917499  0.22451522  0.70791897     0.11200
H640        H  0.04307394  0.23157364  0.73888665     0.11200
H641        H  0.41308161  0.25290518  0.63923325     0.11300
H642        H  0.42940120  0.24570291  0.60868501     0.10100
C643        C  0.47743713  0.34754888  0.75512374    -0.03700
C644        C  0.44479913  0.36831351  0.73427066    -0.09400
C645        C  0.45407973  0.39719197  0.73533186    -0.17100
C646        C  0.49603663  0.40564424  0.75721281     0.25000
C647        C  0.02886834  0.38521991  0.77870450    -0.18800
C648        C  0.01965689  0.35632215  0.77771860    -0.07700
C649        C  0.00513360  0.43506795  0.75673684    -0.14100
C650        C  0.01225099  0.45966163  0.75565176    -0.13900
C651        C  0.02034044  0.48913119  0.75426013     0.24900
C652        C  0.06163643  0.49794322  0.77452173    -0.19300
C653        C  0.06979211  0.52685673  0.77433038    -0.07700
C654        C  0.03666036  0.54727073  0.75380712    -0.03800
C655        C  0.49510887  0.53810580  0.73291188    -0.09100
C656        C  0.48703718  0.50921142  0.73318270    -0.16800
H657        H  0.41199803  0.36213421  0.71659461     0.11400
H658        H  0.42843107  0.41282957  0.71861719     0.10700
H659        H  0.06145976  0.39153461  0.79574816     0.10600
H660        H  0.04538585  0.34075049  0.79397244     0.11100
H661        H  0.08763889  0.48256273  0.79088431     0.11200
H662        H  0.10211204  0.53334089  0.79074822     0.11200
H663        H  0.46902065  0.55338544  0.71697206     0.11300
H664        H  0.45494577  0.50262274  0.71736768     0.10100
In665      In  0.75139127  0.70345479  0.37511451     1.36900
C666        C  0.76754609  0.73019861  0.42500745     0.77200
O667        O  0.68150105  0.70198139  0.33794062    -0.61200
O668        O  0.71263667  0.66270692  0.34889753    -0.52100
C669        C  0.73482987  0.72997501  0.32494244     0.69900
O670        O  0.72652940  0.74106462  0.33899690    -0.47000
C671        C  0.82481292  0.67571257  0.41783117     0.74600
O672        O  0.77521676  0.74145084  0.41052667    -0.58800
O673        O  0.79079121  0.66301587  0.40189304    -0.48900
O674        O  0.75022208  0.70574142  0.41315877    -0.55300
C675        C  0.67828863  0.67526840  0.33232972     0.84800
O676        O  0.75304202  0.70581249  0.33738841    -0.57100
O677        O  0.82112592  0.70235745  0.41166443    -0.60400
In678      In  0.94781865  0.26101710  0.24097904     1.36900
C679        C  0.87146195  0.23740570  0.19619607     0.77200
O680        O  0.93224522  0.25986628  0.19376563    -0.61200
O681        O  0.49274599  0.24386031  0.24221459    -0.52100
C682        C  0.96709266  0.31668449  0.25147359     0.69900
O683        O  0.92930178  0.30761888  0.22931121    -0.47000
C684        C  0.47791343  0.23979560  0.29920240     0.74600
O685        O  0.87736249  0.26404041  0.20314462    -0.58800
O686        O  0.48697708  0.22889346  0.28562347    -0.48900
O687        O  0.90438320  0.22314962  0.21204174    -0.55300
C688        C  0.96717520  0.24888014  0.20971944     0.84800
O689        O  0.49515105  0.29717527  0.26931334    -0.57100
O690        O  0.95572379  0.26239342  0.28430585    -0.60400
In691      In  0.56269125  0.63428491  0.26440358     1.36900
C692        C  0.63749564  0.66027664  0.30824598     0.77200
O693        O  0.55448852  0.63284985  0.22081981    -0.61200
O694        O  0.02023149  0.66467533  0.21790070    -0.52100
C695        C  0.54578318  0.57821669  0.25604648     0.69900
O696        O  0.58299511  0.58786778  0.27655046    -0.47000
C697        C  0.54395454  0.64627063  0.29615456     0.74600
O698        O  0.63342330  0.63345276  0.30262542    -0.58800
O699        O  0.01858130  0.65200199  0.26383989    -0.48900
O700        O  0.60356340  0.67352881  0.29148540    -0.55300
C701        C  0.53019741  0.65446039  0.20478707     0.84800
O702        O  0.01711076  0.59729221  0.23859731    -0.57100
O703        O  0.57835520  0.63461725  0.31166257    -0.60400
In704      In  0.94085552  0.63533211  0.48593572     1.36900
C705        C  0.86576917  0.66093123  0.44188370     0.77200
O706        O  0.94880491  0.63353997  0.02932698    -0.61200
O707        O  0.48182174  0.66630929  0.03179865    -0.52100
C708        C  0.95831315  0.57935521  0.99495738     0.69900
O709        O  0.92075819  0.58889368  0.47302444    -0.47000
C710        C  0.46078307  0.64718247  0.45504731     0.74600
O711        O  0.87028794  0.63420217  0.44818901    -0.58800
O712        O  0.48622029  0.65224380  0.98752399    -0.48900
O713        O  0.89939820  0.67428292  0.45798029    -0.55300
C714        C  0.47225129  0.65554884  0.04505185     0.84800
O715        O  0.48689843  0.59849583  0.01326378    -0.57100
O716        O  0.92570891  0.63632929  0.43893586    -0.60400
In717      In  0.56390472  0.26315226  0.01537627     1.36900
C718        C  0.63991641  0.23884895  0.06021505     0.77200
O719        O  0.58029556  0.26389830  0.06300850    -0.61200
O720        O  0.02107031  0.24521663  0.01606026    -0.52100
C721        C  0.54331477  0.31866686  0.00378252     0.69900
O722        O  0.58111990  0.31005947  0.02474420    -0.47000
C723        C  0.03290120  0.24128690  0.45698107     0.74600
O724        O  0.63462174  0.26555721  0.05361793    -0.58800
O725        O  0.02394429  0.23088319  0.47082937    -0.48900
O726        O  0.60661092  0.22493205  0.04393379    -0.55300
C727        C  0.54652956  0.25166648  0.04821335     0.84800
O728        O  0.01590215  0.29877825  0.48752409    -0.57100
O729        O  0.55526346  0.26383571  0.47157764    -0.60400
In730      In  0.75522933  0.19740559  0.12814600     1.36900
C731        C  0.77020964  0.17070294  0.17742166     0.77200
O732        O  0.82492355  0.19708201  0.16496712    -0.61200
O733        O  0.79629378  0.23713835  0.15589000    -0.52100
C734        C  0.74035252  0.17167202  0.07862223     0.69900
O735        O  0.73339070  0.15953060  0.09329698    -0.47000
C736        C  0.68130590  0.22459719  0.08478607     0.74600
O737        O  0.77656732  0.15893587  0.16217943    -0.58800
O738        O  0.71531478  0.23773772  0.10136763    -0.48900
O739        O  0.75479922  0.19575424  0.16666992    -0.55300
C740        C  0.82977894  0.22365122  0.17169072     0.84800
O741        O  0.75600646  0.19660570  0.08991108    -0.57100
O742        O  0.68534607  0.19790000  0.09077168    -0.60400
In743      In  0.69926200  0.13788185  0.49113600     1.36900
C744        C  0.62233942  0.16081821  0.44629275     0.77200
O745        O  0.70715742  0.13570745  0.03445439    -0.61200
O746        O  0.73758944  0.16993860  0.03568052    -0.52100
C747        C  0.71996610  0.08246371  0.00153144     0.69900
O748        O  0.68191027  0.09109118  0.47883289    -0.47000
C749        C  0.71911716  0.15130514  0.46051859     0.74600
O750        O  0.62895274  0.13433184  0.45408725    -0.58800
O751        O  0.74392753  0.15665304  0.99278552    -0.48900
O752        O  0.65478166  0.17521635  0.46122373    -0.55300
C753        C  0.72876995  0.15853613  0.04927274     0.84800
O754        O  0.74752386  0.10225011  0.01991736    -0.57100
O755        O  0.68465541  0.13932208  0.44445485    -0.60400
In756      In  0.81272652  0.76443286  0.01421801     1.36900
C757        C  0.88734018  0.73818133  0.05812019     0.77200
O758        O  0.82774405  0.76382706  0.06115672    -0.61200
O759        O  0.76665457  0.74890570  0.01239812    -0.52100
C760        C  0.79837991  0.82084616  0.00660668     0.69900
O761        O  0.83531420  0.81028743  0.02817120    -0.47000
C762        C  0.78041256  0.74364610  0.45488037     0.74600
O763        O  0.88323675  0.76486175  0.05176547    -0.58800
O764        O  0.77162321  0.73297965  0.46876183    -0.48900
O765        O  0.85351875  0.72517734  0.04207800    -0.55300
C766        C  0.79225908  0.75376073  0.04492528     0.84800
O767        O  0.76869403  0.80247043  0.48778596    -0.57100
O768        O  0.80336369  0.76590705  0.46999560    -0.60400
In769      In  0.00562037  0.20028863  0.37847740     1.36900
C770        C  0.02080469  0.22733132  0.42767966     0.77200
O771        O  0.93602077  0.19969258  0.34188053    -0.61200
O772        O  0.96532125  0.16005142  0.35092382    -0.52100
C773        C  0.98990141  0.22639286  0.32865595     0.69900
O774        O  0.98293357  0.23822378  0.34343374    -0.47000
C775        C  0.58044672  0.17431179  0.42189596     0.74600
O776        O  0.02702048  0.23892930  0.41225562    -0.58800
O777        O  0.54744908  0.16085407  0.40730534    -0.48900
O778        O  0.50561922  0.20220681  0.41726971    -0.55300
C779        C  0.93157953  0.17316516  0.33509386     0.84800
O780        O  0.00596690  0.20154827  0.33996754    -0.57100
O781        O  0.57494312  0.20066828  0.41408011    -0.60400
In782      In  0.81341700  0.13564086  0.26547607     1.36900
C783        C  0.88997853  0.15917769  0.31044176     0.77200
O784        O  0.80487429  0.13452903  0.22175484    -0.61200
O785        O  0.77349206  0.16768634  0.22068168    -0.52100
C786        C  0.79057455  0.08060509  0.25331448     0.69900
O787        O  0.82868182  0.08841234  0.27416763    -0.47000
C788        C  0.79699810  0.14812515  0.29878087     0.74600
O789        O  0.88409701  0.13255704  0.30333964    -0.58800
O790        O  0.77212337  0.15543593  0.26695090    -0.48900
O791        O  0.85701102  0.17333586  0.29458068    -0.55300
C792        C  0.78242567  0.15703871  0.20691264     0.84800
O793        O  0.76401514  0.10102331  0.23746669    -0.57100
O794        O  0.82960736  0.13443577  0.31296151    -0.60400
In795      In  0.68961764  0.76408768  0.23572357     1.36900
C796        C  0.61513824  0.73783005  0.19220414     0.77200
O797        O  0.67382925  0.76332586  0.18838113    -0.61200
O798        O  0.73528952  0.74872182  0.23703958    -0.52100
C799        C  0.70484723  0.82038860  0.24439105     0.69900
O800        O  0.66765527  0.81008400  0.22173436    -0.47000
C801        C  0.72174306  0.74329445  0.29492642     0.74600
O802        O  0.61929039  0.76450557  0.19858815    -0.58800
O803        O  0.73154709  0.73308403  0.28166993    -0.48900
O804        O  0.64889089  0.72480300  0.20807897    -0.55300
C805        C  0.70923847  0.75332526  0.20438314     0.84800
O806        O  0.73422241  0.80180349  0.26353257    -0.57100
O807        O  0.69767150  0.76501098  0.27912792    -0.60400
In808      In  0.50110008  0.69484177  0.12504918     1.36900
C809        C  0.48494569  0.66863151  0.07497178     0.77200
O810        O  0.93133472  0.69648328  0.08831772    -0.61200
O811        O  0.96231193  0.73552039  0.09830702    -0.52100
C812        C  0.51718764  0.66785231  0.17481345     0.69900
O813        O  0.52526779  0.65679740  0.16057697    -0.47000
C814        C  0.57437282  0.72282625  0.16815783     0.74600
O815        O  0.47674200  0.65724807  0.08900898    -0.58800
O816        O  0.54026808  0.73528441  0.15234060    -0.48900
O817        O  0.50277655  0.69289990  0.08736445    -0.55300
C818        C  0.92806656  0.72310474  0.08221705     0.84800
O819        O  0.49938803  0.69216053  0.16269840    -0.57100
O820        O  0.57088468  0.69626976  0.16174500    -0.60400
C821        C  0.77827422  0.05015561  0.24900821    -0.03700
C822        C  0.80910862  0.02820041  0.26746337    -0.09400
C823        C  0.79820520  0.99972724  0.26593263    -0.17100
C824        C  0.75642887  0.99288324  0.24600992     0.25000
C825        C  0.72531135  0.01450169  0.22689145    -0.18800
C826        C  0.73613302  0.04298257  0.22833103    -0.07700
C827        C  0.74588378  0.96385439  0.24605778    -0.14100
C828        C  0.73797797  0.93945231  0.24685486    -0.13900
C829        C  0.72955553  0.91000492  0.24794127     0.24900
C830        C  0.68755365  0.90019856  0.22352119    -0.19300
C831        C  0.67944050  0.87113515  0.22317128    -0.07700
C832        C  0.71331118  0.85155874  0.24721349    -0.03800
C833        C  0.75539860  0.86175917  0.27233730    -0.09100
C834        C  0.76343983  0.89082064  0.27266938    -0.16800
H835        H  0.84181453  0.03313389  0.28365351     0.11400
H836        H  0.82252537  0.98314404  0.28079117     0.10700
H837        H  0.69287475  0.00943786  0.21136766     0.10600
H838        H  0.71178051  0.05948942  0.21396649     0.11100
H839        H  0.66109056  0.91487845  0.20429448     0.11200
H840        H  0.64671365  0.86383901  0.20349666     0.11200
H841        H  0.78208023  0.84714574  0.29114148     0.11300
H842        H  0.79607317  0.89819916  0.29172653     0.10100
C843        C  0.78206674  0.74849547  0.06298355    -0.03700
C844        C  0.74135495  0.73919663  0.04411573    -0.09400
C845        C  0.73193849  0.73536548  0.06157882    -0.17100
C846        C  0.76315863  0.74068092  0.09802005     0.25000
C847        C  0.80386348  0.74955070  0.11696971    -0.18800
C848        C  0.81328169  0.75343321  0.09961297    -0.07700
C849        C  0.75328446  0.73828653  0.11593753    -0.14100
C850        C  0.74585507  0.73808923  0.13163575    -0.13900
C851        C  0.73656349  0.74005574  0.15001098     0.24900
C852        C  0.76906109  0.73691077  0.18690014    -0.19300
C853        C  0.76022679  0.74067043  0.20479597    -0.07700
C854        C  0.71883077  0.74781071  0.18591832    -0.03800
C855        C  0.68632443  0.75045615  0.14885288    -0.09100
C856        C  0.69514970  0.74657219  0.13105253    -0.16800
H857        H  0.71674094  0.73527583  0.01588746     0.11400
H858        H  0.70024231  0.72860709  0.04662421     0.10700
H859        H  0.82821419  0.75382351  0.14512762     0.10600
H860        H  0.84494202  0.76057451  0.11484530     0.11100
H861        H  0.80129661  0.73198864  0.20185184     0.11200
H862        H  0.78582599  0.73854299  0.23335054     0.11200
H863        H  0.65409485  0.75583489  0.13361064     0.11300
H864        H  0.66978854  0.74913021  0.10253758     0.10100
C865        C  0.72912721  0.15803442  0.44258076    -0.03700
C866        C  0.76971960  0.16791295  0.46169188    -0.09400
C867        C  0.77923514  0.17262511  0.44441442    -0.17100
C868        C  0.74817610  0.16769306  0.40792338     0.25000
C869        C  0.70749225  0.15847276  0.38869754    -0.18800
C870        C  0.69800596  0.15365762  0.40587547    -0.07700
C871        C  0.75839002  0.17020740  0.39030806    -0.14100
C872        C  0.76571917  0.16967191  0.37456373    -0.13900
C873        C  0.77429079  0.16595462  0.35582810     0.24900
C874        C  0.74442923  0.17464196  0.32042577    -0.19300
C875        C  0.75183333  0.16915872  0.30171733    -0.07700
C876        C  0.78911843  0.15482308  0.31828358    -0.03800
C877        C  0.81909938  0.14650920  0.35394499    -0.09100
C878        C  0.81168913  0.15203151  0.37255428    -0.16800
H879        H  0.79425458  0.17139889  0.48999576     0.11400
H880        H  0.81093729  0.17959376  0.45957048     0.10700
H881        H  0.68330531  0.15445614  0.36049938     0.10600
H882        H  0.66643083  0.14612550  0.39047307     0.11100
H883        H  0.71521601  0.18526567  0.30717319     0.11200
H884        H  0.72826322  0.17579075  0.27427881     0.11200
H885        H  0.84814557  0.13547585  0.36739833     0.11300
H886        H  0.83486469  0.14505758  0.39985987     0.10100
C887        C  0.73120748  0.05182002  0.00525746    -0.03700
C888        C  0.69903545  0.03086048  0.48325416    -0.09400
C889        C  0.70929002  0.00222635  0.48464166    -0.17100
C890        C  0.75177844  0.99418067  0.00801341     0.25000
C891        C  0.78413674  0.01479449  0.03058247    -0.18800
C892        C  0.77393431  0.04347409  0.02924549    -0.07700
C893        C  0.76186696  0.96493973  0.00806875    -0.14100
C894        C  0.76902011  0.94032701  0.00708960    -0.13900
C895        C  0.77632850  0.91067423  0.00548991     0.24900
C896        C  0.81784339  0.90060483  0.02808108    -0.19300
C897        C  0.82498954  0.87146199  0.02767775    -0.07700
C898        C  0.79063592  0.85206118  0.00466554    -0.03800
C899        C  0.74897893  0.86249366  0.48147097    -0.09100
C900        C  0.74190546  0.89162805  0.48191282    -0.16800
H901        H  0.66586635  0.03670130  0.46448120     0.11400
H902        H  0.68399789  0.98644298  0.46708683     0.10700
H903        H  0.81714990  0.00880041  0.04880139     0.10600
H904        H  0.79934844  0.05920993  0.04642268     0.11100
H905        H  0.84472543  0.91516741  0.04640921     0.11200
H906        H  0.85741840  0.86399324  0.04589952     0.11200
H907        H  0.72194342  0.84801980  0.46354812     0.11300
H908        H  0.70963615  0.89919772  0.46428151     0.10100
C909        C  0.96798409  0.54841811  0.99792882    -0.03700
C910        C  0.51021232  0.53925536  0.52116156    -0.09400
C911        C  0.51907871  0.51040862  0.52162375    -0.17100
C912        C  0.98588460  0.49036864  0.49894513     0.25000
C913        C  0.94384654  0.49914485  0.47641302    -0.18800
C914        C  0.93491555  0.52801656  0.97589588    -0.07700
C915        C  0.99489021  0.46102016  0.49814795    -0.14100
C916        C  0.00270703  0.43655156  0.49743853    -0.13900
C917        C  0.01241269  0.40725631  0.49722416     0.24900
C918        C  0.98029401  0.38631348  0.47701807    -0.19300
C919        C  0.99011711  0.35756197  0.97826070    -0.07700
C920        C  0.53224818  0.34941607  0.99979084    -0.03800
C921        C  0.56414697  0.37068690  0.51934882    -0.09100
C922        C  0.55425033  0.39944354  0.51805477    -0.16800
H923        H  0.53629285  0.55452072  0.53836691     0.11400
H924        H  0.55173998  0.50384416  0.53921870     0.10700
H925        H  0.91791464  0.48379593  0.45880606     0.10600
H926        H  0.90209414  0.53448562  0.95771512     0.11100
H927        H  0.94780490  0.39211779  0.46079884     0.11200
H928        H  0.96494766  0.34160294  0.96302917     0.11200
H929        H  0.59687721  0.36500152  0.53623062     0.11300
H930        H  0.57935706  0.41548501  0.53378014     0.10100
C931        C  0.47082441  0.65304736  0.43697391    -0.03700
C932        C  0.51189813  0.66159078  0.45608033    -0.09400
C933        C  0.52129790  0.66565756  0.43863570    -0.17100
C934        C  0.98967467  0.66140380  0.40197064     0.25000
C935        C  0.94857476  0.65341688  0.38277512    -0.18800
C936        C  0.93919079  0.64924551  0.40012498    -0.07700
C937        C  0.99958059  0.66375986  0.38408421    -0.14100
C938        C  0.50718399  0.66370775  0.36852017    -0.13900
C939        C  0.51685175  0.66112798  0.35047338     0.24900
C940        C  0.98634506  0.66819626  0.31450393    -0.19300
C941        C  0.99519286  0.66383940  0.29668392    -0.07700
C942        C  0.53460610  0.65226580  0.31472155    -0.03800
C943        C  0.56521581  0.64569313  0.35094130    -0.09100
C944        C  0.55636139  0.65008325  0.36865098    -0.16800
H945        H  0.53684127  0.66460185  0.48448745     0.11400
H946        H  0.55330152  0.67170220  0.45377446     0.10700
H947        H  0.92391225  0.64996464  0.35443684     0.10600
H948        H  0.90724179  0.64273094  0.38472055     0.11100
H949        H  0.95555852  0.67664639  0.30014320     0.11200
H950        H  0.97108161  0.66908631  0.26878882     0.11200
H951        H  0.59588510  0.63680079  0.36553529     0.11300
H952        H  0.58012821  0.64443428  0.39642945     0.10100
C953        C  0.53796569  0.24568456  0.06735820    -0.03700
C954        C  0.99945103  0.23298980  0.05009442    -0.09400
C955        C  0.99135010  0.22827751  0.06841043    -0.17100
C956        C  0.52170701  0.23611664  0.10411863     0.25000
C957        C  0.56031876  0.24839416  0.12154443    -0.18800
C958        C  0.56843865  0.25313729  0.10332403    -0.07700
C959        C  0.51264455  0.23299307  0.12256676    -0.14100
C960        C  0.50516134  0.23250272  0.13820877    -0.13900
C961        C  0.49533223  0.23452700  0.15615700     0.24900
C962        C  0.52714227  0.23036213  0.19284901    -0.19300
C963        C  0.51795073  0.23441762  0.21043809    -0.07700
C964        C  0.97690059  0.24286610  0.19144756    -0.03800
C965        C  0.94503122  0.24649129  0.15454752    -0.09100
C966        C  0.95420875  0.24232283  0.13704850    -0.16800
H967        H  0.97547466  0.22704671  0.02241492     0.11400
H968        H  0.96124556  0.21889062  0.05463079     0.10700
H969        H  0.58393939  0.25466649  0.14911366     0.10600
H970        H  0.59842529  0.26291034  0.11731640     0.11100
H971        H  0.55916203  0.22447281  0.20791044     0.11200
H972        H  0.54306236  0.23153672  0.23887893     0.11200
H973        H  0.91308784  0.25291517  0.13923345     0.11300
H974        H  0.92940520  0.24570778  0.10868406     0.10100
C975        C  0.97745142  0.34753478  0.25512705    -0.03700
C976        C  0.94481608  0.36830120  0.23427093    -0.09400
C977        C  0.95410181  0.39717847  0.23533412    -0.17100
C978        C  0.99606135  0.40562799  0.25722014     0.25000
C979        C  0.52889011  0.38520188  0.27871448    -0.18800
C980        C  0.51967372  0.35630516  0.27772658    -0.07700
C981        C  0.50516364  0.43505058  0.25674649    -0.14100
C982        C  0.51228117  0.45964399  0.25566063    -0.13900
C983        C  0.52036549  0.48911406  0.25426500     0.24900
C984        C  0.56165996  0.49792963  0.27452546    -0.19300
C985        C  0.56980975  0.52684391  0.27432995    -0.07700
C986        C  0.53667405  0.54725484  0.25380372    -0.03800
C987        C  0.99512448  0.53808609  0.23290954    -0.09100
C988        C  0.98705851  0.50919118  0.23318455    -0.16800
H989        H  0.91201240  0.36212389  0.21659065     0.11400
H990        H  0.92845458  0.41281810  0.21861705     0.10700
H991        H  0.56148376  0.39151447  0.29576222     0.10600
H992        H  0.54540052  0.34073235  0.29398250     0.11100
H993        H  0.58766411  0.48255230  0.29088949     0.11200
H994        H  0.60212907  0.53333102  0.29074784     0.11200
H995        H  0.96903234  0.55336354  0.21696715     0.11300
H996        H  0.95496909  0.50259965  0.21737050     0.10100
In997      In  0.75140181  0.70345859  0.87511816     1.36900
C998        C  0.76755021  0.73020093  0.92500829     0.77200
O999        O  0.68151156  0.70198729  0.83794139    -0.61200
O1000       O  0.71264691  0.66271006  0.84890533    -0.52100
C1001       C  0.73483805  0.72997564  0.82494349     0.69900
O1002       O  0.72654266  0.74106824  0.83900071    -0.47000
C1003       C  0.82482797  0.67572154  0.91783754     0.74600
O1004       O  0.77522283  0.74145410  0.91052928    -0.58800
O1005       O  0.79080630  0.66302105  0.90189412    -0.48900
O1006       O  0.75022699  0.70574346  0.91315897    -0.55300
C1007       C  0.67829851  0.67527357  0.83233377     0.84800
O1008       O  0.75304812  0.70581247  0.83738912    -0.57100
O1009       O  0.82113868  0.70236750  0.91167495    -0.60400
In1010     In  0.94781655  0.26102895  0.74098014     1.36900
C1011       C  0.87146334  0.23741288  0.69619877     0.77200
O1012       O  0.93224389  0.25987561  0.69376689    -0.61200
O1013       O  0.49274801  0.24387619  0.74221826    -0.52100
C1014       C  0.96708277  0.31669782  0.75147158     0.69900
O1015       O  0.92929304  0.30762951  0.72930791    -0.47000
C1016       C  0.47790540  0.23980648  0.79920107     0.74600
O1017       O  0.87735999  0.26404806  0.70314459    -0.58800
O1018       O  0.48697625  0.22890693  0.78562673    -0.48900
O1019       O  0.90438648  0.22315886  0.71204530    -0.55300
C1020       C  0.96717628  0.24889289  0.70972236     0.84800
O1021       O  0.49514409  0.29719057  0.76931386    -0.57100
O1022       O  0.95571344  0.26240331  0.78430256    -0.60400
In1023     In  0.56269602  0.63429764  0.76441007     1.36900
C1024       C  0.63750403  0.66028373  0.80824987     0.77200
O1025       O  0.55449084  0.63285542  0.72082481    -0.61200
O1026       O  0.02023505  0.66468427  0.71790367    -0.52100
C1027       C  0.54577558  0.57823147  0.75605228     0.69900
O1028       O  0.58298887  0.58787838  0.77655357    -0.47000
C1029       C  0.54397085  0.64629833  0.79616733     0.74600
O1030       O  0.63342893  0.63345911  0.80263260    -0.58800
O1031       O  0.01859656  0.65202889  0.76385237    -0.48900
O1032       O  0.60357283  0.67353906  0.79148629    -0.55300
C1033       C  0.53019922  0.65446564  0.70478985     0.84800
O1034       O  0.01710776  0.59731014  0.73860736    -0.57100
O1035       O  0.57836559  0.63463661  0.81167194    -0.60400
In1036     In  0.94087678  0.63534878  0.98594324     1.36900
C1037       C  0.86578646  0.66094304  0.94189071     0.77200
O1038       O  0.94878539  0.63352971  0.52932071    -0.61200
O1039       O  0.48180757  0.66629268  0.53179122    -0.52100
C1040       C  0.95829821  0.57934013  0.49495786     0.69900
O1041       O  0.92077424  0.58891109  0.97302226    -0.47000
C1042       C  0.46081436  0.64721280  0.95506442     0.74600
O1043       O  0.87030808  0.63421325  0.94819267    -0.58800
O1044       O  0.48618814  0.65222596  0.48750436    -0.48900
O1045       O  0.89941479  0.67429808  0.95799118    -0.55300
C1046       C  0.47223626  0.65553667  0.54504541     0.84800
O1047       O  0.48688136  0.59848229  0.51325996    -0.57100
O1048       O  0.92573511  0.63636387  0.93894606    -0.60400
In1049     In  0.56390752  0.26314878  0.51537436     1.36900
C1050       C  0.63991958  0.23884703  0.56021467     0.77200
O1051       O  0.58029700  0.26390460  0.56300578    -0.61200
O1052       O  0.02107497  0.24521633  0.51606183    -0.52100
C1053       C  0.54331468  0.31866185  0.50377406     0.69900
O1054       O  0.58112021  0.31005526  0.52473597    -0.47000
C1055       C  0.03289447  0.24129271  0.95698009     0.74600
O1056       O  0.63462405  0.26555519  0.55361701    -0.58800
O1057       O  0.02393425  0.23089089  0.97082643    -0.48900
O1058       O  0.60661470  0.22492942  0.54393360    -0.55300
C1059       C  0.54653236  0.25167239  0.54821308     0.84800
O1060       O  0.01590164  0.29878356  0.98753066    -0.57100
O1061       O  0.55526281  0.26383874  0.97158038    -0.60400
In1062     In  0.75523461  0.19740707  0.62814854     1.36900
C1063       C  0.77020768  0.17070128  0.67741889     0.77200
O1064       O  0.82493060  0.19708610  0.66497509    -0.61200
O1065       O  0.79629507  0.23714138  0.65589184    -0.52100
C1066       C  0.74036688  0.17167611  0.57862876     0.69900
O1067       O  0.73340261  0.15953307  0.59330101    -0.47000
C1068       C  0.68130955  0.22459628  0.58478631     0.74600
O1069       O  0.77657087  0.15893621  0.66217988    -0.58800
O1070       O  0.71531782  0.23773786  0.60136816    -0.48900
O1071       O  0.75479638  0.19575239  0.66666705    -0.55300
C1072       C  0.82978235  0.22365582  0.67169527     0.84800
O1073       O  0.75601792  0.19661043  0.58991758    -0.57100
O1074       O  0.68535086  0.19789909  0.59077228    -0.60400
In1075     In  0.69923759  0.13787556  0.99112531     1.36900
C1076       C  0.62231823  0.16081658  0.94628430     0.77200
O1077       O  0.70718223  0.13571024  0.53446495    -0.61200
O1078       O  0.73760713  0.16994639  0.53568917    -0.52100
C1079       C  0.71998580  0.08246945  0.50153559     0.69900
O1080       O  0.68188977  0.09108375  0.97882976    -0.47000
C1081       C  0.71908505  0.15129274  0.96050065     0.74600
O1082       O  0.62892748  0.13432941  0.95407514    -0.58800
O1083       O  0.74395770  0.15666202  0.49280377    -0.48900
O1084       O  0.65476286  0.17521303  0.96121803    -0.55300
C1085       C  0.72878924  0.15854112  0.54928149     0.84800
O1086       O  0.74754544  0.10225441  0.51992593    -0.57100
O1087       O  0.68462451  0.13931002  0.94444034    -0.60400
In1088     In  0.81272529  0.76443344  0.51421736     1.36900
C1089       C  0.88733989  0.73818191  0.55812054     0.77200
O1090       O  0.82773141  0.76383052  0.56115035    -0.61200
O1091       O  0.76664679  0.74890571  0.51238970    -0.52100
C1092       C  0.79838321  0.82084722  0.50660863     0.69900
O1093       O  0.83531712  0.81028689  0.52817744    -0.47000
C1094       C  0.78041475  0.74364761  0.95488070     0.74600
O1095       O  0.88323492  0.76486104  0.55175972    -0.58800
O1096       O  0.77162040  0.73298221  0.96875875    -0.48900
O1097       O  0.85352021  0.72517973  0.54208522    -0.55300
C1098       C  0.79224567  0.75376251  0.54491547     0.84800
O1099       O  0.76869237  0.80246806  0.98778934    -0.57100
O1100       O  0.80336985  0.76590661  0.96999930    -0.60400
In1101     In  0.00560444  0.20029464  0.87847118     1.36900
C1102       C  0.02079418  0.22733781  0.92767648     0.77200
O1103       O  0.93600442  0.19969551  0.84187430    -0.61200
O1104       O  0.96530849  0.16005607  0.85091838    -0.52100
C1105       C  0.98988840  0.22640201  0.82865181     0.69900
O1106       O  0.98291314  0.23822993  0.84342532    -0.47000
C1107       C  0.58042732  0.17431289  0.92188832     0.74600
O1108       O  0.02701557  0.23893346  0.91225564    -0.58800
O1109       O  0.54742787  0.16085752  0.90729691    -0.48900
O1110       O  0.50559956  0.20221586  0.91726126    -0.55300
C1111       C  0.93156568  0.17316804  0.83508835     0.84800
O1112       O  0.00595742  0.20155850  0.83996528    -0.57100
O1113       O  0.57492729  0.20066957  0.91407408    -0.60400
In1114     In  0.81340668  0.13563735  0.76546879     1.36900
C1115       C  0.88996625  0.15917841  0.81043659     0.77200
O1116       O  0.80486905  0.13452642  0.72175040    -0.61200
O1117       O  0.77348113  0.16768148  0.72067327    -0.52100
C1118       C  0.79057513  0.08059958  0.75331190     0.69900
O1119       O  0.82868131  0.08841036  0.77416604    -0.47000
C1120       C  0.79697697  0.14811727  0.79876644     0.74600
O1121       O  0.88408784  0.13255773  0.80333538    -0.58800
O1122       O  0.77210534  0.15542931  0.76693738    -0.48900
O1123       O  0.85699685  0.17333449  0.79457422    -0.55300
C1124       C  0.78241919  0.15703548  0.70690710     0.84800
O1125       O  0.76401127  0.10101528  0.73746045    -0.57100
O1126       O  0.82958876  0.13443001  0.81294961    -0.60400
In1127     In  0.68961561  0.76408040  0.73571753     1.36900
C1128       C  0.61513627  0.73782387  0.69220036     0.77200
O1129       O  0.67381919  0.76331570  0.68837116    -0.61200
O1130       O  0.73528011  0.74870972  0.73702741    -0.52100
C1131       C  0.70485117  0.82038010  0.74438418     0.69900
O1132       O  0.66765801  0.81007786  0.72173144    -0.47000
C1133       C  0.72174729  0.74329235  0.79492461     0.74600
O1134       O  0.61928844  0.76450001  0.69858166    -0.58800
O1135       O  0.73154559  0.73307813  0.78166493    -0.48900
O1136       O  0.64888933  0.72479544  0.70807830    -0.55300
C1137       C  0.70922581  0.75331223  0.70437029     0.84800
O1138       O  0.73422424  0.80179332  0.76352174    -0.57100
O1139       O  0.69767727  0.76500968  0.77912643    -0.60400
In1140     In  0.50109642  0.69483817  0.62504540     1.36900
C1141       C  0.48493495  0.66862219  0.57496641     0.77200
O1142       O  0.93133328  0.69648369  0.58831976    -0.61200
O1143       O  0.96231013  0.73551783  0.59830090    -0.52100
C1144       C  0.51718717  0.66785377  0.67481366     0.69900
O1145       O  0.52526655  0.65679641  0.66057748    -0.47000
C1146       C  0.57437022  0.72282100  0.66815336     0.74600
O1147       O  0.47673319  0.65724195  0.58900630    -0.58800
O1148       O  0.54026586  0.73528013  0.65233566    -0.48900
O1149       O  0.50276778  0.69289018  0.58735732    -0.55300
C1150       C  0.92806548  0.72310434  0.58221587     0.84800
O1151       O  0.49938609  0.69216132  0.66269580    -0.57100
O1152       O  0.57088100  0.69626451  0.66174020    -0.60400
C1153       C  0.77828038  0.05014894  0.74900802    -0.03700
C1154       C  0.80911759  0.02819581  0.76746080    -0.09400
C1155       C  0.79821901  0.99972110  0.76593085    -0.17100
C1156       C  0.75644484  0.99287376  0.74601148     0.25000
C1157       C  0.72532493  0.01449032  0.72689623    -0.18800
C1158       C  0.73614167  0.04297250  0.72833483    -0.07700
C1159       C  0.74590378  0.96384330  0.74605907    -0.14100
C1160       C  0.73799721  0.93944080  0.74685407    -0.13900
C1161       C  0.72957070  0.90999388  0.74793734     0.24900
C1162       C  0.68756763  0.90019052  0.72351793    -0.19300
C1163       C  0.67945063  0.87112793  0.72316664    -0.07700
C1164       C  0.71331901  0.85154945  0.74720695    -0.03800
C1165       C  0.75540775  0.86174678  0.77232970    -0.09100
C1166       C  0.76345271  0.89080739  0.77266314    -0.16800
H1167       H  0.84182180  0.03313182  0.78364800     0.11400
H1168       H  0.82254055  0.98313971  0.78078688     0.10700
H1169       H  0.69289023  0.00942384  0.71137542     0.10600
H1170       H  0.71178671  0.05947799  0.71397222     0.11100
H1171       H  0.66110523  0.91487274  0.70429241     0.11200
H1172       H  0.64672366  0.86383398  0.70349341     0.11200
H1173       H  0.78208741  0.84713181  0.79113247     0.11300
H1174       H  0.79608666  0.89818345  0.79171942     0.10100
C1175       C  0.78204702  0.74849578  0.56296883    -0.03700
C1176       C  0.74133932  0.73918321  0.54409917    -0.09400
C1177       C  0.73191803  0.73534698  0.56155812    -0.17100
C1178       C  0.76312875  0.74067144  0.59799658     0.25000
C1179       C  0.80382906  0.74955609  0.61694781    -0.18800
C1180       C  0.81325229  0.75344340  0.59959542    -0.07700
C1181       C  0.75324977  0.73827086  0.61590993    -0.14100
C1182       C  0.74582002  0.73807015  0.63160779    -0.13900
C1183       C  0.73653348  0.74003482  0.64998672     0.24900
C1184       C  0.76903809  0.73690143  0.68687748    -0.19300
C1185       C  0.76020938  0.74066271  0.70477722    -0.07700
C1186       C  0.71881173  0.74779356  0.68590156    -0.03800
C1187       C  0.68629815  0.75042664  0.64883456    -0.09100
C1188       C  0.69511786  0.74654061  0.63103026    -0.16800
H1189       H  0.71673342  0.73525450  0.51587360     0.11400
H1190       H  0.70022463  0.72857651  0.54660206     0.10700
H1191       H  0.82817238  0.75383622  0.64510361     0.10600
H1192       H  0.84490907  0.76059539  0.61482896     0.11100
H1193       H  0.80127490  0.73198757  0.70182752     0.11200
H1194       H  0.78581359  0.73854520  0.73333237     0.11200
H1195       H  0.65406705  0.75579787  0.63359380     0.11300
H1196       H  0.66975202  0.74908936  0.60251486     0.10100
C1197       C  0.72909205  0.15801802  0.94255982    -0.03700
C1198       C  0.76968139  0.16790044  0.96166732    -0.09400
C1199       C  0.77919457  0.17260977  0.94438772    -0.17100
C1200       C  0.74813637  0.16767076  0.90789812     0.25000
C1201       C  0.70745561  0.15844591  0.88867582    -0.18800
C1202       C  0.69797154  0.15363372  0.90585588    -0.07700
C1203       C  0.75834814  0.17018423  0.89028103    -0.14100
C1204       C  0.76567807  0.16964944  0.87453724    -0.13900
C1205       C  0.77425370  0.16593416  0.85580430     0.24900
C1206       C  0.74440387  0.17463500  0.82040765    -0.19300
C1207       C  0.75181267  0.16915546  0.80170193    -0.07700
C1208       C  0.78909110  0.15481067  0.81826553    -0.03800
C1209       C  0.81906008  0.14648307  0.85392131    -0.09100
C1210       C  0.81164492  0.15200125  0.87252763    -0.16800
H1211       H  0.79421566  0.17139200  0.98997000     0.11400
H1212       H  0.81089456  0.17958210  0.95954130     0.10700
H1213       H  0.68326931  0.15442372  0.86047891     0.10600
H1214       H  0.66639913  0.14609814  0.89045641     0.11100
H1215       H  0.71519638  0.18526654  0.80715742     0.11200
H1216       H  0.72825150  0.17579810  0.77426754     0.11200
H1217       H  0.84810049  0.13544197  0.86737251     0.11300
H1218       H  0.83481110  0.14501705  0.89982841     0.10100
C1219       C  0.73122399  0.05182550  0.50525801    -0.03700
C1220       C  0.69902116  0.03085287  0.98325892    -0.09400
C1221       C  0.70927780  0.00221912  0.98464748    -0.17100
C1222       C  0.75179079  0.99418538  0.50801183     0.25000
C1223       C  0.78415091  0.01479718  0.53058520    -0.18800
C1224       C  0.77395071  0.04347724  0.52924935    -0.07700
C1225       C  0.76187785  0.96494357  0.50806846    -0.14100
C1226       C  0.76903016  0.94033002  0.50709093    -0.13900
C1227       C  0.77633709  0.91067639  0.50549244     0.24900
C1228       C  0.81785171  0.90060515  0.52808603    -0.19300
C1229       C  0.82499622  0.87146185  0.52768280    -0.07700
C1230       C  0.79064108  0.85206242  0.50466816    -0.03800
C1231       C  0.74897336  0.86249071  0.98147035    -0.09100
C1232       C  0.74189827  0.89162462  0.98191220    -0.16800
H1233       H  0.66585194  0.03669188  0.96448890     0.11400
H1234       H  0.68398717  0.98643412  0.96709632     0.10700
H1235       H  0.81716454  0.00880123  0.54880743     0.10600
H1236       H  0.79936563  0.05921082  0.54643005     0.11100
H1237       H  0.84473444  0.91516659  0.54641521     0.11200
H1238       H  0.85742469  0.86399183  0.54590603     0.11200
H1239       H  0.72193963  0.84801607  0.96354983     0.11300
H1240       H  0.70962822  0.89919274  0.96428250     0.10100
C1241       C  0.96797273  0.54840391  0.49793078    -0.03700
C1242       C  0.51022210  0.53926737  0.02115677    -0.09400
C1243       C  0.51908504  0.51041937  0.02161925    -0.17100
C1244       C  0.98588922  0.49038006  0.99894406     0.25000
C1245       C  0.94385267  0.49915869  0.97641471    -0.18800
C1246       C  0.93490602  0.52800137  0.47589470    -0.07700
C1247       C  0.99489152  0.46102974  0.99814775    -0.14100
C1248       C  0.00270761  0.43655986  0.99744050    -0.13900
C1249       C  0.01241343  0.40726334  0.99722920     0.24900
C1250       C  0.98029604  0.38631953  0.97702947    -0.19300
C1251       C  0.99011517  0.35755658  0.47824727    -0.07700
C1252       C  0.53224750  0.34941064  0.49978157    -0.03800
C1253       C  0.56414642  0.37069313  0.01935244    -0.09100
C1254       C  0.55424980  0.39945044  0.01805607    -0.16800
H1255       H  0.53630498  0.55453211  0.03836059     0.11400
H1256       H  0.55174415  0.50385314  0.03921165     0.10700
H1257       H  0.91791959  0.48381048  0.95881093     0.10600
H1258       H  0.90208358  0.53446880  0.45771149     0.11100
H1259       H  0.94780849  0.39212375  0.96081330     0.11200
H1260       H  0.96494510  0.34159793  0.46301153     0.11200
H1261       H  0.59687626  0.36500780  0.03623109     0.11300
H1262       H  0.57935620  0.41549291  0.03377696     0.10100
C1263       C  0.47085969  0.65308680  0.93699532    -0.03700
C1264       C  0.51193806  0.66162376  0.95610726    -0.09400
C1265       C  0.52134034  0.66569825  0.93866525    -0.17100
C1266       C  0.98971519  0.66145878  0.90199762     0.25000
C1267       C  0.94861089  0.65347909  0.88279701    -0.18800
C1268       C  0.93922446  0.64929998  0.90014414    -0.07700
C1269       C  0.99962313  0.66381961  0.88411286    -0.14100
C1270       C  0.50722505  0.66376758  0.86854764    -0.13900
C1271       C  0.51688885  0.66118304  0.85049809     0.24900
C1272       C  0.98638314  0.66825440  0.81452956    -0.19300
C1273       C  0.99522448  0.66388888  0.79670569    -0.07700
C1274       C  0.53463003  0.65230341  0.81473851    -0.03800
C1275       C  0.56523957  0.64572873  0.85095764    -0.09100
C1276       C  0.55639168  0.65012737  0.86867120    -0.16800
H1277       H  0.53688228  0.66462360  0.98451609     0.11400
H1278       H  0.55334795  0.67173693  0.95380811     0.10700
H1279       H  0.92394746  0.65003791  0.85445731     0.10600
H1280       H  0.90727144  0.64279075  0.88473511     0.11100
H1281       H  0.95560227  0.67671305  0.80017231     0.11200
H1282       H  0.97111413  0.66913770  0.76881171     0.11200
H1283       H  0.59590303  0.63682781  0.86554802     0.11300
H1284       H  0.58015688  0.64447570  0.89644789     0.10100
C1285       C  0.53796765  0.24569741  0.56735847    -0.03700
C1286       C  0.99945426  0.23300272  0.55009732    -0.09400
C1287       C  0.99135331  0.22829578  0.56841399    -0.17100
C1288       C  0.52170912  0.23614040  0.60412055     0.25000
C1289       C  0.56031903  0.24841898  0.62154348    -0.18800
C1290       C  0.56843891  0.25315675  0.60332232    -0.07700
C1291       C  0.51264855  0.23301843  0.62257038    -0.14100
C1292       C  0.50516643  0.23252639  0.63821326    -0.13900
C1293       C  0.49533725  0.23454649  0.65616183     0.24900
C1294       C  0.52715175  0.23039275  0.69285598    -0.19300
C1295       C  0.51795891  0.23444498  0.71044455    -0.07700
C1296       C  0.97690310  0.24287943  0.69145139    -0.03800
C1297       C  0.94502935  0.24649253  0.65454938    -0.09100
C1298       C  0.95420810  0.24232703  0.63705082    -0.16800
H1299       H  0.97547892  0.22705496  0.52241911     0.11400
H1300       H  0.96125037  0.21890790  0.55463648     0.10700
H1301       H  0.58393877  0.25469562  0.64911127     0.10600
H1302       H  0.59842406  0.26292985  0.61731240     0.11100
H1303       H  0.55917502  0.22451519  0.70791905     0.11200
H1304       H  0.54307374  0.23157363  0.73888668     0.11200
H1305       H  0.91308149  0.25290518  0.63923323     0.11300
H1306       H  0.92940121  0.24570293  0.60868504     0.10100
C1307       C  0.97743715  0.34754890  0.75512376    -0.03700
C1308       C  0.94479920  0.36831350  0.73427067    -0.09400
C1309       C  0.95407983  0.39719195  0.73533193    -0.17100
C1310       C  0.99603681  0.40564426  0.75721291     0.25000
C1311       C  0.52886822  0.38521988  0.77870444    -0.18800
C1312       C  0.51965677  0.35632211  0.77771858    -0.07700
C1313       C  0.50513361  0.43506793  0.75673685    -0.14100
C1314       C  0.51225094  0.45966162  0.75565175    -0.13900
C1315       C  0.52034024  0.48913119  0.75426006     0.24900
C1316       C  0.56163628  0.49794321  0.77452166    -0.19300
C1317       C  0.56979197  0.52685668  0.77433032    -0.07700
C1318       C  0.53666026  0.54727068  0.75380708    -0.03800
C1319       C  0.99510908  0.53810583  0.73291196    -0.09100
C1320       C  0.98703729  0.50921142  0.73318272    -0.16800
H1321       H  0.91199794  0.36213417  0.71659460     0.11400
H1322       H  0.92843120  0.41282954  0.71861733     0.10700
H1323       H  0.56145887  0.39153445  0.79574780     0.10600
H1324       H  0.54538594  0.34075047  0.79397250     0.11100
H1325       H  0.58763873  0.48256270  0.79088421     0.11200
H1326       H  0.60211195  0.53334085  0.79074819     0.11200
H1327       H  0.96902072  0.55338546  0.71697211     0.11300
H1328       H  0.95494670  0.50262287  0.71736791     0.10100
loop_ 
_geom_bond_atom_site_label_1 
_geom_bond_atom_site_label_2 
_geom_bond_distance 
_geom_bond_site_symmetry_2 
_ccdc_geom_bond_type 
In1           O3   2.231       .  S
In1           O4   2.249       .  S
In1          O12   2.253       .  S
In1           O6   2.247       .  S
In1           O8   2.250       .  S
In1           O9   2.248       .  S
In1          O10   2.254       .  S
In1          O13   2.232       .  S
C2            O8   1.260       .  A
C2           O10   1.259       .  A
C2           C98   1.465       .  S
O3           C11   1.260       .  A
O4           C11   1.261       .  A
C5           O12   1.259       .  A
C5            O6   1.260       .  A
C5          C137   1.464       .  S
C7            O9   1.261       .  A
C7           O13   1.260       .  A
C7           C41   1.460       .  S
C11          C28   1.460       .  S
In14         O16   2.225       .  S
In14         O19   2.237       .  S
In14         O21   2.249       .  S
In14         O23   2.225       .  S
In14         O26   2.240       .  S
In14        O681   2.258       .  S
In14        O689   2.242       .  S
In14        O686   2.250       .  S
C15          O21   1.263       .  A
C15          O23   1.260       .  A
C15          C76   1.459       .  S
O16          C24   1.260       .  A
O17        In678   2.258       .  S
O17         C688   1.265       .  A
C18          O19   1.262       .  A
C18         O689   1.262       .  A
C18         C311   1.476       .  S
C20          O22   1.262       .  A
C20         O690   1.259       .  A
C20         C773   1.463       .  S
O22        In678   2.250       .  S
C24         O681   1.265       .  A
C24         C300   1.476       .  S
O25        In678   2.242       .  S
O25         C682   1.262       .  A
O26         C684   1.259       .  A
In27         O29   2.245       .  S
In27         O32   2.244       .  S
In27         O34   2.251       .  S
In27         O36   2.228       .  S
In27         O39   2.224       .  S
In27        O694   2.251       .  S
In27        O702   2.240       .  S
In27        O699   2.258       .  S
C28          O34   1.263       .  A
C28          O36   1.259       .  A
O29          C37   1.259       .  A
O30        In691   2.251       .  S
O30         C701   1.261       .  A
C31          O32   1.263       .  A
C31         O702   1.262       .  A
C31         C322   1.477       .  S
C33          O39   1.260       .  A
C33         O699   1.265       .  A
C33         C278   1.476       .  S
O35        In691   2.258       .  S
O35         C697   1.265       .  A
C37         O694   1.261       .  A
C37         C148   1.465       .  S
O38        In691   2.240       .  S
O38         C695   1.262       .  A
In40         O45   2.243       .  S
In40         O47   2.250       .  S
In40         O49   2.228       .  S
In40         O52   2.225       .  S
In40        O374   2.243       .  S
In40       O1039   2.250       .  S
In40       O1047   2.239       .  S
In40       O1044   2.258       .  S
C41          O47   1.263       .  A
C41          O49   1.259       .  A
O42        In372   2.243   1_554  S
O42         C714   1.259       .  A
O43       In1036   2.250   1_554  S
O43          C50   1.262       .  A
C44         O715   1.262   1_556  A
C44         O377   1.263       .  A
C44         C245   1.477       .  S
O45         C376   1.263       .  A
C46         O380   1.265       .  A
C46         O716   1.260       .  A
C46         C267   1.476       .  S
O48       In1036   2.258       .  S
O48         C378   1.265       .  A
C50         O706   1.259       .  A
C50         C145   1.464       .  S
O51       In1036   2.239   1_554  S
O51         C708   1.262   1_554  A
O52         C710   1.260       .  A
In53         O55   2.225       .  S
In53         O58   2.242       .  S
In53         O60   2.253       .  S
In53         O62   2.223       .  S
In53        O720   2.255       .  S
In53       O1060   2.240   1_554  S
In53       O1057   2.252   1_554  S
In53        O397   2.242   1_554  S
C54          O60   1.263       .  A
C54          O62   1.259       .  A
C54          C72   1.460       .  S
O55          C63   1.260       .  A
O56        In717   2.255       .  S
O56         C727   1.265       .  A
C57          O58   1.263       .  A
C57        O1060   1.262   1_554  A
C57         C256   1.478   1_554  S
C59          O61   1.262       .  A
C59         O729   1.260       .  A
C59         C106   1.465       .  S
O61       In1049   2.252       .  S
C63         O720   1.265       .  A
C63         C289   1.476       .  S
O64       In1049   2.240       .  S
O64        C1053   1.262       .  A
O65        In385   2.242       .  S
O65         C723   1.260       .  A
In66         O68   2.227       .  S
In66         O69   2.251       .  S
In66         O77   2.248       .  S
In66         O71   2.248       .  S
In66         O73   2.247       .  S
In66         O74   2.252       .  S
In66         O75   2.253       .  S
In66         O78   2.228       .  S
C67          O73   1.260       .  A
C67          O75   1.259       .  A
C67         C128   1.464       .  S
O68          C76   1.259       .  A
O69          C76   1.261       .  A
C70          O77   1.259       .  A
C70          O71   1.260       .  A
C70          C89   1.463       .  S
C72          O74   1.261       .  A
C72          O78   1.260       .  A
In79         O84   2.238       .  S
In79         O86   2.253       .  S
In79         O88   2.226       .  S
In79         O91   2.223       .  S
In79        O413   2.240       .  S
In79        O414   2.249       .  S
In79        O422   2.244       .  S
In79        O419   2.257       .  S
C80          O86   1.263       .  A
C80          O88   1.259       .  A
C80         C111   1.461       .  S
O81        In411   2.240   1_554  S
O81          C89   1.259       .  A
O82        In411   2.249   1_554  S
O82          C89   1.261       .  A
C83          O90   1.262       .  A
C83         O416   1.262   1_554  A
C83         C223   1.477       .  S
O84         C415   1.262       .  A
C85          O91   1.260       .  A
C85         O419   1.265       .  A
C85         C201   1.475       .  S
O87        In411   2.257       .  S
O87         C417   1.265       .  A
O90        In411   2.244   1_554  S
In92         O94   2.225       .  S
In92         O95   2.260       .  S
In92         O97   2.241       .  S
In92         O99   2.250       .  S
In92        O101   2.228       .  S
In92        O435   2.242   1_554  S
In92        O432   2.253   1_554  S
In92        O436   2.244   1_554  S
C93          O99   1.262       .  A
C93         O101   1.259       .  A
C93         C154   1.460       .  S
O94         C102   1.259       .  A
O95         C102   1.265       .  A
C96          O97   1.262       .  A
C96         O435   1.263   1_554  A
C96         C234   1.477       .  S
C98         O100   1.261       .  A
C98         O104   1.259       .  A
O100       In424   2.253       .  S
C102        C179   1.477       .  S
O103       In424   2.242       .  S
O103        C428   1.263       .  A
O104       In424   2.244       .  S
In105       O107   2.226       .  S
In105       O108   2.257       .  S
In105       O116   2.248       .  S
In105       O110   2.246       .  S
In105       O112   2.247       .  S
In105       O777   2.255       .  S
In105       O778   2.253       .  S
In105       O781   2.227       .  S
C106        O112   1.260       .  A
C106        O778   1.259       .  A
O107        C115   1.259       .  A
O108        C115   1.262       .  A
C109        O116   1.259       .  A
C109        O110   1.260       .  A
C109        C684   1.463       .  S
C111        O113   1.262       .  A
C111        O117   1.259       .  A
O113       In769   2.255       .  S
O114       In769   2.253       .  S
O114        C770   1.259       .  A
C115        C119   1.461       .  S
O117       In769   2.227       .  S
In118       O120   2.241       .  S
In118       O121   2.251       .  S
In118       O129   2.239       .  S
In118       O123   2.242       .  S
In118       O125   2.257       .  S
In118       O126   2.253       .  S
In118       O127   2.222       .  S
In118       O130   2.222       .  S
C119        O125   1.263       .  A
C119        O127   1.259       .  A
O120        C128   1.260       .  A
O121        C128   1.262       .  A
C122        O129   1.262       .  A
C122        O123   1.263       .  A
C122        C157   1.477       .  S
C124        O126   1.265       .  A
C124        O130   1.260       .  A
C124        C212   1.475       .  S
In131       O133   2.225       .  S
In131       O134   2.261       .  S
In131       O142   2.240       .  S
In131       O136   2.241       .  S
In131       O138   2.247       .  S
In131       O139   2.252       .  S
In131       O140   2.228       .  S
In131       O143   2.239       .  S
C132        O138   1.263       .  A
C132        O140   1.259       .  A
C132        C150   1.460       .  S
O133        C141   1.259       .  A
O134        C141   1.265       .  A
C135        O142   1.262       .  A
C135        O136   1.262       .  A
C135        C168   1.476       .  S
C137        O139   1.262       .  A
C137        O143   1.259       .  A
C141        C190   1.477       .  S
In144       O155   2.252   1_455  S
In144       O149   2.251       .  S
In144       O151   2.250   1_455  S
In144       O152   2.247       .  S
In144       O153   2.251       .  S
In144       O156   2.232       .  S
In144       O810   2.232   1_455  S
In144       O811   2.248   1_455  S
C145        O151   1.260       .  A
C145        O153   1.258   1_655  A
O146       In808   2.232       .  S
O146        C154   1.260       .  A
O147       In808   2.248       .  S
O147        C154   1.261       .  A
C148        O155   1.259   1_455  A
C148        O149   1.260       .  A
C150        O152   1.261       .  A
C150        O156   1.260       .  A
C157        C158   1.406       .  A
C157        C162   1.406       .  A
C158        C159   1.398   1_545  A
C158        H171   1.083       .  S
C159        C160   1.400       .  A
C159        H172   1.084       .  S
C160        C161   1.400   1_565  A
C160        C163   1.439       .  S
C161        C162   1.399       .  A
C161        H173   1.084       .  S
C162        H174   1.083       .  S
C163        C164   1.206       .  T
C164        C165   1.439       .  S
C165        C166   1.400       .  A
C165        C170   1.400       .  A
C166        C167   1.399       .  A
C166        H175   1.084       .  S
C167        C168   1.406       .  A
C167        H176   1.083       .  S
C168        C169   1.406       .  A
C169        C170   1.398       .  A
C169        H177   1.083       .  S
C170        H178   1.084       .  S
C179        C180   1.406       .  A
C179        C184   1.406       .  A
C180        C181   1.401       .  A
C180        H193   1.083       .  S
C181        C182   1.402       .  A
C181        H194   1.083       .  S
C182        C183   1.398       .  A
C182        C185   1.439       .  S
C183        C184   1.396       .  A
C183        H195   1.084       .  S
C184        H196   1.083       .  S
C185        C186   1.206       .  T
C186        C187   1.440       .  S
C187        C188   1.402       .  A
C187        C192   1.398       .  A
C188        C189   1.401       .  A
C188        H197   1.083       .  S
C189        C190   1.405       .  A
C189        H198   1.083       .  S
C190        C191   1.407       .  A
C191        C192   1.396       .  A
C191        H199   1.083       .  S
C192        H200   1.084       .  S
C201        C202   1.406       .  A
C201        C206   1.406       .  A
C202        C203   1.401       .  A
C202        H215   1.083       .  S
C203        C204   1.401       .  A
C203        H216   1.083       .  S
C204        C205   1.398       .  A
C204        C207   1.437       .  S
C205        C206   1.395       .  A
C205        H217   1.084       .  S
C206        H218   1.083       .  S
C207        C208   1.205       .  T
C208        C209   1.437       .  S
C209        C210   1.401       .  A
C209        C214   1.398       .  A
C210        C211   1.400       .  A
C210        H219   1.083       .  S
C211        C212   1.405       .  A
C211        H220   1.083       .  S
C212        C213   1.406       .  A
C213        C214   1.395       .  A
C213        H221   1.083       .  S
C214        H222   1.084       .  S
C223        C228   1.406       .  A
C223        C556   1.406   1_554  A
C224        C225   1.398       .  A
C224        C555   1.406       .  A
C224        H237   1.083       .  S
C225        C558   1.399   1_545  A
C225        H238   1.084   1_545  S
C226        C227   1.400   1_565  A
C226        C557   1.399   1_564  A
C226        C229   1.440       .  S
C227        C228   1.399       .  A
C227        H239   1.083       .  S
C228        H240   1.083       .  S
C229        C230   1.206       .  T
C230        C231   1.440       .  S
C231        C232   1.400       .  A
C231        C568   1.400   1_554  A
C232        C233   1.399       .  A
C232        H241   1.084       .  S
C233        C234   1.406       .  A
C233        H242   1.083       .  S
C234        C567   1.406   1_554  A
C235        C236   1.398       .  A
C235        C566   1.406       .  A
C235        H243   1.083       .  S
C236        C563   1.400       .  A
C236        H244   1.084       .  S
C245        C250   1.406       .  A
C245       C1242   1.406   1_556  A
C246        C247   1.398       .  A
C246       C1241   1.406   1_455  A
C246        H259   1.083       .  S
C247        C912   1.400   1_455  A
C247        H260   1.084       .  S
C248        C249   1.400       .  A
C248        C911   1.400       .  A
C248        C251   1.440       .  S
C249        C582   1.399       .  A
C249        H261   1.084       .  S
C250        C581   1.399       .  A
C250        H262   1.083       .  S
C251        C252   1.206       .  T
C252        C253   1.440       .  S
C253        C254   1.400       .  A
C253        C922   1.400       .  A
C254        C587   1.399       .  A
C254        H263   1.084       .  S
C255        C586   1.399       .  A
C255        C920   1.406       .  A
C255        H264   1.083       .  S
C256        C919   1.406   1_455  A
C256        C589   1.406   1_556  A
C257        C258   1.399       .  A
C257        C588   1.406       .  A
C257        H265   1.083       .  S
C258        C917   1.400       .  A
C258        H266   1.084       .  S
C267        C268   1.405   1_655  A
C267        C936   1.406       .  A
C268        C269   1.401       .  A
C268        H281   1.083       .  S
C269        C934   1.402   1_455  A
C269        H282   1.083       .  S
C270        C271   1.398       .  A
C270        C933   1.402       .  A
C270        C273   1.439       .  S
C271        C272   1.396       .  A
C271        H283   1.084       .  S
C272        C931   1.406       .  A
C272        H284   1.083       .  S
C273        C938   1.206       .  T
C274        C275   1.439       .  S
C274        C937   1.206   1_455  T
C275        C280   1.398       .  A
C275        C940   1.402   1_455  A
C276        C277   1.401       .  A
C276        C939   1.402       .  A
C276        H285   1.083       .  S
C277        C942   1.406       .  A
C277        H286   1.083       .  S
C278        C279   1.406       .  A
C278        C941   1.406   1_455  A
C279        C280   1.395       .  A
C279        H287   1.083       .  S
C280        H288   1.084       .  S
C289        C294   1.406       .  A
C289        C954   1.405   1_455  A
C290        C291   1.400       .  A
C290        C953   1.405       .  A
C290        H303   1.083       .  S
C291        C956   1.401       .  A
C291        H304   1.083       .  S
C292        C293   1.398       .  A
C292        C955   1.401   1_455  A
C292        C295   1.438       .  S
C293        C294   1.396       .  A
C293        H305   1.084       .  S
C294        H306   1.083       .  S
C295        C296   1.205       .  T
C296        C297   1.438   1_455  S
C297        C298   1.401   1_655  A
C297        C966   1.398       .  A
C298        C299   1.400       .  A
C298        H307   1.083       .  S
C299        C964   1.405   1_455  A
C299        H308   1.083       .  S
C300        C301   1.406       .  A
C300        C963   1.405       .  A
C301        C302   1.396       .  A
C301        H309   1.083       .  S
C302        C961   1.398       .  A
C302        H310   1.084       .  S
C311        C312   1.406       .  A
C311        C980   1.406       .  A
C312        C313   1.398       .  A
C312        H325   1.083       .  S
C313        C314   1.400       .  A
C313        H326   1.084       .  S
C314        C979   1.400       .  A
C314        C981   1.439       .  S
C315        C316   1.399       .  A
C315        C978   1.400   1_455  A
C315        H327   1.084       .  S
C316        C975   1.406   1_455  A
C316        H328   1.083       .  S
C317        C978   1.439   1_455  S
C317        C318   1.206       .  T
C318        C319   1.440       .  S
C319        C320   1.400       .  A
C319        C988   1.400   1_455  A
C320        C321   1.399       .  A
C320        H329   1.084       .  S
C321        C322   1.406       .  A
C321        H330   1.083       .  S
C322        C987   1.406   1_455  A
C323        C324   1.398       .  A
C323        C986   1.406       .  A
C323        H331   1.083       .  S
C324        C983   1.400       .  A
C324        H332   1.084       .  S
In333       O335   2.231       .  S
In333       O336   2.249       .  S
In333       O344   2.253       .  S
In333       O338   2.247       .  S
In333       O340   2.250       .  S
In333       O341   2.248       .  S
In333       O342   2.254       .  S
In333       O345   2.232       .  S
C334        O340   1.260       .  A
C334        O342   1.259       .  A
C334        C430   1.465       .  S
O335        C343   1.260       .  A
O336        C343   1.261       .  A
C337        O344   1.259       .  A
C337        O338   1.260       .  A
C337        C469   1.464       .  S
C339        O341   1.261       .  A
C339        O345   1.260       .  A
C339        C373   1.460       .  S
C343        C360   1.460       .  S
In346       O348   2.225       .  S
In346      O1013   2.258       .  S
In346      O1021   2.242       .  S
In346       O351   2.237       .  S
In346       O353   2.249       .  S
In346      O1018   2.250       .  S
In346       O355   2.225       .  S
In346       O358   2.240       .  S
C347        O353   1.263       .  A
C347        O355   1.260       .  A
C347        C408   1.459       .  S
O348        C356   1.260       .  A
O349      In1010   2.258       .  S
O349       C1020   1.265       .  A
C350       O1021   1.262       .  A
C350        O351   1.262       .  A
C350        C643   1.476       .  S
C352        O354   1.262       .  A
C352       O1022   1.259       .  A
C352       C1105   1.463       .  S
O354      In1010   2.250       .  S
C356       O1013   1.265       .  A
C356        C632   1.476       .  S
O357      In1010   2.242       .  S
O357       C1014   1.262       .  A
O358       C1016   1.259       .  A
In359       O361   2.245       .  S
In359      O1026   2.251       .  S
In359      O1034   2.240       .  S
In359       O364   2.244       .  S
In359       O366   2.251       .  S
In359      O1031   2.258       .  S
In359       O368   2.228       .  S
In359       O371   2.224       .  S
C360        O366   1.263       .  A
C360        O368   1.259       .  A
O361        C369   1.259       .  A
O362      In1023   2.251       .  S
O362       C1033   1.261       .  A
C363       O1034   1.262       .  A
C363        O364   1.263       .  A
C363        C654   1.477       .  S
C365       O1031   1.265       .  A
C365        O371   1.260       .  A
C365        C610   1.476       .  S
O367      In1023   2.258       .  S
O367       C1029   1.265       .  A
C369       O1026   1.261       .  A
C369        C480   1.465       .  S
O370      In1023   2.240       .  S
O370       C1027   1.262       .  A
In372       O707   2.250   1_556  S
In372       O715   2.239   1_556  S
In372       O377   2.243       .  S
In372       O379   2.250       .  S
In372       O712   2.258       .  S
In372       O381   2.228       .  S
In372       O384   2.225       .  S
C373        O379   1.263       .  A
C373        O381   1.259       .  A
O374       C1046   1.259       .  A
O375       In704   2.250       .  S
O375        C382   1.262       .  A
C376       O1047   1.262       .  A
C376        C577   1.477       .  S
C378       O1048   1.260       .  A
C378        C599   1.476       .  S
O380       In704   2.258       .  S
C382       O1038   1.259       .  A
C382        C477   1.464       .  S
O383       In704   2.239       .  S
O383       C1040   1.262       .  A
O384       C1042   1.260       .  A
In385       O387   2.225       .  S
In385      O1052   2.255       .  S
In385       O728   2.240       .  S
In385       O390   2.242       .  S
In385       O392   2.253       .  S
In385       O725   2.252       .  S
In385       O394   2.223       .  S
C386        O392   1.263       .  A
C386        O394   1.259       .  A
C386        C404   1.460       .  S
O387        C395   1.260       .  A
O388      In1049   2.255       .  S
O388       C1059   1.265       .  A
C389        O728   1.262       .  A
C389        O390   1.263       .  A
C389        C588   1.477       .  S
C391        O393   1.262       .  A
C391       O1061   1.260       .  A
C391        C438   1.465       .  S
O393       In717   2.252   1_556  S
C395       O1052   1.265       .  A
C395        C621   1.476       .  S
O396       In717   2.240   1_556  S
O396        C721   1.262   1_556  A
O397       C1055   1.260       .  A
In398       O400   2.227       .  S
In398       O401   2.251       .  S
In398       O409   2.248       .  S
In398       O403   2.248       .  S
In398       O405   2.247       .  S
In398       O406   2.252       .  S
In398       O407   2.253       .  S
In398       O410   2.228       .  S
C399        O405   1.260       .  A
C399        O407   1.259       .  A
C399        C460   1.464       .  S
O400        C408   1.259       .  A
O401        C408   1.261       .  A
C402        O409   1.259       .  A
C402        O403   1.260       .  A
C402        C421   1.463       .  S
C404        O406   1.261       .  A
C404        O410   1.260       .  A
In411       O416   2.238       .  S
In411       O418   2.253       .  S
In411       O420   2.226       .  S
In411       O423   2.223       .  S
C412        O418   1.263       .  A
C412        O420   1.259       .  A
C412        C443   1.461       .  S
O413        C421   1.259       .  A
O414        C421   1.261       .  A
C415        O422   1.262       .  A
C415        C555   1.477       .  S
C417        O423   1.260       .  A
C417        C533   1.475       .  S
In424       O426   2.225       .  S
In424       O427   2.260       .  S
In424       O429   2.241       .  S
In424       O431   2.250       .  S
In424       O433   2.228       .  S
C425        O431   1.262       .  A
C425        O433   1.259       .  A
C425        C486   1.460       .  S
O426        C434   1.259       .  A
O427        C434   1.265       .  A
C428        O429   1.262       .  A
C428        C566   1.477       .  S
C430        O432   1.261       .  A
C430        O436   1.259       .  A
C434        C511   1.477       .  S
In437       O439   2.226       .  S
In437       O440   2.257       .  S
In437       O448   2.248       .  S
In437       O442   2.246       .  S
In437       O444   2.247       .  S
In437      O1109   2.255       .  S
In437      O1110   2.253       .  S
In437      O1113   2.227       .  S
C438        O444   1.260       .  A
C438       O1110   1.259       .  A
O439        C447   1.259       .  A
O440        C447   1.262       .  A
C441        O448   1.259       .  A
C441        O442   1.260       .  A
C441       C1016   1.463       .  S
C443        O445   1.262       .  A
C443        O449   1.259       .  A
O445      In1101   2.255       .  S
O446      In1101   2.253       .  S
O446       C1102   1.259       .  A
C447        C451   1.461       .  S
O449      In1101   2.227       .  S
In450       O452   2.241       .  S
In450       O453   2.251       .  S
In450       O461   2.239       .  S
In450       O455   2.242       .  S
In450       O457   2.257       .  S
In450       O458   2.253       .  S
In450       O459   2.222       .  S
In450       O462   2.222       .  S
C451        O457   1.263       .  A
C451        O459   1.259       .  A
O452        C460   1.260       .  A
O453        C460   1.262       .  A
C454        O461   1.262       .  A
C454        O455   1.263       .  A
C454        C489   1.477       .  S
C456        O458   1.265       .  A
C456        O462   1.260       .  A
C456        C544   1.475       .  S
In463       O465   2.225       .  S
In463       O466   2.261       .  S
In463       O474   2.240       .  S
In463       O468   2.241       .  S
In463       O470   2.247       .  S
In463       O471   2.252       .  S
In463       O472   2.228       .  S
In463       O475   2.239       .  S
C464        O470   1.263       .  A
C464        O472   1.259       .  A
C464        C482   1.460       .  S
O465        C473   1.259       .  A
O466        C473   1.265       .  A
C467        O474   1.262       .  A
C467        O468   1.262       .  A
C467        C500   1.476       .  S
C469        O471   1.262       .  A
C469        O475   1.259       .  A
C473        C522   1.477       .  S
In476      O1142   2.232   1_455  S
In476      O1143   2.248   1_455  S
In476       O487   2.252   1_455  S
In476       O481   2.251       .  S
In476       O483   2.250   1_455  S
In476       O484   2.247       .  S
In476       O485   2.251       .  S
In476       O488   2.232       .  S
C477        O483   1.260       .  A
C477        O485   1.258   1_655  A
O478      In1140   2.232       .  S
O478        C486   1.260       .  A
O479      In1140   2.248       .  S
O479        C486   1.261       .  A
C480        O487   1.259   1_455  A
C480        O481   1.260       .  A
C482        O484   1.261       .  A
C482        O488   1.260       .  A
C489        C490   1.406       .  A
C489        C494   1.406       .  A
C490        C491   1.398   1_545  A
C490        H503   1.083       .  S
C491        C492   1.400       .  A
C491        H504   1.084       .  S
C492        C493   1.400   1_565  A
C492        C495   1.439       .  S
C493        C494   1.399       .  A
C493        H505   1.084       .  S
C494        H506   1.083       .  S
C495        C496   1.206       .  T
C496        C497   1.439       .  S
C497        C498   1.400       .  A
C497        C502   1.400       .  A
C498        C499   1.399       .  A
C498        H507   1.084       .  S
C499        C500   1.406       .  A
C499        H508   1.083       .  S
C500        C501   1.406       .  A
C501        C502   1.398       .  A
C501        H509   1.083       .  S
C502        H510   1.084       .  S
C511        C512   1.406       .  A
C511        C516   1.406       .  A
C512        C513   1.401       .  A
C512        H525   1.083       .  S
C513        C514   1.402       .  A
C513        H526   1.083       .  S
C514        C515   1.398       .  A
C514        C517   1.439       .  S
C515        C516   1.396       .  A
C515        H527   1.084       .  S
C516        H528   1.083       .  S
C517        C518   1.206       .  T
C518        C519   1.440       .  S
C519        C520   1.402       .  A
C519        C524   1.398       .  A
C520        C521   1.401       .  A
C520        H529   1.083       .  S
C521        C522   1.405       .  A
C521        H530   1.083       .  S
C522        C523   1.407       .  A
C523        C524   1.396       .  A
C523        H531   1.083       .  S
C524        H532   1.084       .  S
C533        C534   1.406       .  A
C533        C538   1.406       .  A
C534        C535   1.401       .  A
C534        H547   1.083       .  S
C535        C536   1.401       .  A
C535        H548   1.083       .  S
C536        C537   1.398       .  A
C536        C539   1.437       .  S
C537        C538   1.395       .  A
C537        H549   1.084       .  S
C538        H550   1.083       .  S
C539        C540   1.205       .  T
C540        C541   1.437       .  S
C541        C542   1.401       .  A
C541        C546   1.398       .  A
C542        C543   1.400       .  A
C542        H551   1.083       .  S
C543        C544   1.405       .  A
C543        H552   1.083       .  S
C544        C545   1.406       .  A
C545        C546   1.395       .  A
C545        H553   1.083       .  S
C546        H554   1.084       .  S
C555        C560   1.406       .  A
C556        C557   1.398       .  A
C556        H569   1.083       .  S
C557        H570   1.084   1_545  S
C558        C559   1.400   1_565  A
C558        C561   1.440       .  S
C559        C560   1.399       .  A
C559        H571   1.083       .  S
C560        H572   1.083       .  S
C561        C562   1.206       .  T
C562        C563   1.440       .  S
C563        C564   1.400       .  A
C564        C565   1.399       .  A
C564        H573   1.084       .  S
C565        C566   1.406       .  A
C565        H574   1.083       .  S
C567        C568   1.398       .  A
C567        H575   1.083       .  S
C568        H576   1.084       .  S
C577        C910   1.406       .  A
C577        C582   1.406       .  A
C578        C909   1.406   1_454  A
C578        C579   1.398       .  A
C578        H591   1.083       .  S
C579       C1244   1.400   1_454  A
C579        H592   1.084       .  S
C580       C1243   1.400   1_556  A
C580        C581   1.400       .  A
C580        C583   1.440       .  S
C581        H593   1.084       .  S
C582        H594   1.083       .  S
C583        C584   1.206       .  T
C584        C585   1.440       .  S
C585        C586   1.400       .  A
C585       C1254   1.400   1_556  A
C586        H595   1.084       .  S
C587       C1252   1.406       .  A
C587        H596   1.083       .  S
C588       C1251   1.406   1_455  A
C589        C590   1.399       .  A
C589        H597   1.083       .  S
C590       C1249   1.400   1_554  A
C590        H598   1.084       .  S
C599        C600   1.405   1_655  A
C599       C1268   1.406       .  A
C600        C601   1.401       .  A
C600        H613   1.083       .  S
C601       C1266   1.402   1_455  A
C601        H614   1.083       .  S
C602       C1265   1.402       .  A
C602        C603   1.398       .  A
C602        C605   1.439       .  S
C603        C604   1.396       .  A
C603        H615   1.084       .  S
C604       C1263   1.406       .  A
C604        H616   1.083       .  S
C605       C1270   1.206       .  T
C606        C607   1.439       .  S
C606       C1269   1.206   1_455  T
C607       C1272   1.402   1_455  A
C607        C612   1.398       .  A
C608       C1271   1.402       .  A
C608        C609   1.401       .  A
C608        H617   1.083       .  S
C609       C1274   1.406       .  A
C609        H618   1.083       .  S
C610       C1273   1.406   1_455  A
C610        C611   1.406       .  A
C611        C612   1.395       .  A
C611        H619   1.083       .  S
C612        H620   1.084       .  S
C621       C1286   1.405   1_455  A
C621        C626   1.406       .  A
C622       C1285   1.405       .  A
C622        C623   1.400       .  A
C622        H635   1.083       .  S
C623       C1288   1.401       .  A
C623        H636   1.083       .  S
C624       C1287   1.401   1_455  A
C624        C625   1.398       .  A
C624        C627   1.438       .  S
C625        C626   1.396       .  A
C625        H637   1.084       .  S
C626        H638   1.083       .  S
C627        C628   1.205       .  T
C628        C629   1.438   1_455  S
C629        C630   1.401   1_655  A
C629       C1298   1.398       .  A
C630        C631   1.401       .  A
C630        H639   1.083       .  S
C631       C1296   1.405   1_455  A
C631        H640   1.083       .  S
C632       C1295   1.405       .  A
C632        C633   1.406       .  A
C633        C634   1.396       .  A
C633        H641   1.083       .  S
C634       C1293   1.398       .  A
C634        H642   1.084       .  S
C643        C644   1.406       .  A
C643       C1312   1.406       .  A
C644        C645   1.398       .  A
C644        H657   1.083       .  S
C645        C646   1.400       .  A
C645        H658   1.084       .  S
C646       C1311   1.400       .  A
C646       C1313   1.439       .  S
C647       C1310   1.400   1_455  A
C647        C648   1.399       .  A
C647        H659   1.084       .  S
C648       C1307   1.406   1_455  A
C648        H660   1.083       .  S
C649       C1310   1.439   1_455  S
C649        C650   1.206       .  T
C650        C651   1.440       .  S
C651        C652   1.400       .  A
C651       C1320   1.400   1_455  A
C652        C653   1.399       .  A
C652        H661   1.084       .  S
C653        C654   1.406       .  A
C653        H662   1.083       .  S
C654       C1319   1.406   1_455  A
C655       C1318   1.406       .  A
C655        C656   1.398       .  A
C655        H663   1.083       .  S
C656       C1315   1.400       .  A
C656        H664   1.084       .  S
In665       O667   2.231       .  S
In665       O668   2.249       .  S
In665       O676   2.253       .  S
In665       O670   2.247       .  S
In665       O672   2.250       .  S
In665       O673   2.248       .  S
In665       O674   2.254       .  S
In665       O677   2.232       .  S
C666        O672   1.260       .  A
C666        O674   1.259       .  A
C666        C762   1.465       .  S
O667        C675   1.260       .  A
O668        C675   1.261       .  A
C669        O676   1.259       .  A
C669        O670   1.260       .  A
C669        C801   1.464       .  S
C671        O673   1.261       .  A
C671        O677   1.260       .  A
C671        C705   1.460       .  S
C675        C692   1.460       .  S
In678       O680   2.225       .  S
In678       O683   2.237       .  S
In678       O685   2.249       .  S
In678       O687   2.225       .  S
In678       O690   2.240       .  S
C679        O685   1.263       .  A
C679        O687   1.260       .  A
C679        C740   1.459       .  S
O680        C688   1.260       .  A
C682        O683   1.262       .  A
C682        C975   1.476       .  S
C684        O686   1.262       .  A
C688        C964   1.476       .  S
In691       O693   2.245       .  S
In691       O696   2.244       .  S
In691       O698   2.251       .  S
In691       O700   2.228       .  S
In691       O703   2.224       .  S
C692        O698   1.263       .  A
C692        O700   1.259       .  A
O693        C701   1.259       .  A
C695        O696   1.263       .  A
C695        C986   1.477       .  S
C697        O703   1.260       .  A
C697        C942   1.476       .  S
C701        C812   1.465       .  S
In704      O1038   2.243       .  S
In704       O709   2.243       .  S
In704       O711   2.250       .  S
In704       O713   2.228       .  S
In704       O716   2.225       .  S
C705        O711   1.263       .  A
C705        O713   1.259       .  A
O706      In1036   2.243   1_554  S
O707        C714   1.262       .  A
C708       O1041   1.263       .  A
C708        C909   1.477       .  S
O709       C1040   1.263       .  A
C710       O1044   1.265       .  A
C710        C931   1.476       .  S
O712       C1042   1.265       .  A
C714        C809   1.464       .  S
In717       O719   2.225       .  S
In717       O722   2.242       .  S
In717       O724   2.253       .  S
In717       O726   2.223       .  S
In717      O1061   2.242   1_554  S
C718        O724   1.263       .  A
C718        O726   1.259       .  A
C718        C736   1.460       .  S
O719        C727   1.260       .  A
C721        O722   1.263       .  A
C721        C920   1.477   1_554  S
C723        O725   1.262       .  A
C723        C770   1.465       .  S
C727        C953   1.476       .  S
O729      In1049   2.242       .  S
In730       O732   2.227       .  S
In730       O733   2.251       .  S
In730       O741   2.248       .  S
In730       O735   2.248       .  S
In730       O737   2.247       .  S
In730       O738   2.252       .  S
In730       O739   2.253       .  S
In730       O742   2.228       .  S
C731        O737   1.260       .  A
C731        O739   1.259       .  A
C731        C792   1.464       .  S
O732        C740   1.259       .  A
O733        C740   1.261       .  A
C734        O741   1.259       .  A
C734        O735   1.260       .  A
C734        C753   1.463       .  S
C736        O738   1.261       .  A
C736        O742   1.260       .  A
In743      O1077   2.240       .  S
In743      O1078   2.249       .  S
In743      O1086   2.244       .  S
In743       O748   2.238       .  S
In743       O750   2.253       .  S
In743      O1083   2.257       .  S
In743       O752   2.226       .  S
In743       O755   2.223       .  S
C744        O750   1.263       .  A
C744        O752   1.259       .  A
C744        C775   1.461       .  S
O745      In1075   2.240   1_554  S
O745        C753   1.259       .  A
O746      In1075   2.249   1_554  S
O746        C753   1.261       .  A
C747        O754   1.262       .  A
C747       O1080   1.262   1_554  A
C747        C887   1.477       .  S
O748       C1079   1.262       .  A
C749       O1083   1.265       .  A
C749        O755   1.260       .  A
C749        C865   1.475       .  S
O751      In1075   2.257       .  S
O751       C1081   1.265       .  A
O754      In1075   2.244   1_554  S
In756       O758   2.225       .  S
In756       O759   2.260       .  S
In756      O1099   2.242   1_554  S
In756       O761   2.241       .  S
In756       O763   2.250       .  S
In756      O1096   2.253   1_554  S
In756       O765   2.228       .  S
In756      O1100   2.244   1_554  S
C757        O763   1.262       .  A
C757        O765   1.259       .  A
C757        C818   1.460       .  S
O758        C766   1.259       .  A
O759        C766   1.265       .  A
C760       O1099   1.263   1_554  A
C760        O761   1.262       .  A
C760        C898   1.477       .  S
C762        O764   1.261       .  A
C762        O768   1.259       .  A
O764      In1088   2.253       .  S
C766        C843   1.477       .  S
O767      In1088   2.242       .  S
O767       C1092   1.263       .  A
O768      In1088   2.244       .  S
In769       O771   2.226   1_455  S
In769       O772   2.257   1_455  S
In769       O780   2.248       .  S
In769       O774   2.246   1_455  S
In769       O776   2.247       .  S
C770        O776   1.260       .  A
O771        C779   1.259       .  A
O772        C779   1.262       .  A
C773        O780   1.259   1_655  A
C773        O774   1.260       .  A
C775        O777   1.262       .  A
C775        O781   1.259       .  A
C779        C783   1.461       .  S
In782       O784   2.241       .  S
In782       O785   2.251       .  S
In782       O793   2.239       .  S
In782       O787   2.242       .  S
In782       O789   2.257       .  S
In782       O790   2.253       .  S
In782       O791   2.222       .  S
In782       O794   2.222       .  S
C783        O789   1.263       .  A
C783        O791   1.259       .  A
O784        C792   1.260       .  A
O785        C792   1.262       .  A
C786        O793   1.262       .  A
C786        O787   1.263       .  A
C786        C821   1.477       .  S
C788        O790   1.265       .  A
C788        O794   1.260       .  A
C788        C876   1.475       .  S
In795       O797   2.225       .  S
In795       O798   2.261       .  S
In795       O806   2.240       .  S
In795       O800   2.241       .  S
In795       O802   2.247       .  S
In795       O803   2.252       .  S
In795       O804   2.228       .  S
In795       O807   2.239       .  S
C796        O802   1.263       .  A
C796        O804   1.259       .  A
C796        C814   1.460       .  S
O797        C805   1.259       .  A
O798        C805   1.265       .  A
C799        O806   1.262       .  A
C799        O800   1.262       .  A
C799        C832   1.476       .  S
C801        O803   1.262       .  A
C801        O807   1.259       .  A
C805        C854   1.477       .  S
In808       O819   2.252       .  S
In808       O813   2.251       .  S
In808       O815   2.250       .  S
In808       O816   2.247       .  S
In808       O817   2.251       .  S
In808       O820   2.232       .  S
C809        O815   1.260       .  A
C809        O817   1.258       .  A
O810        C818   1.260       .  A
O811        C818   1.261       .  A
C812        O819   1.259       .  A
C812        O813   1.260       .  A
C814        O816   1.261       .  A
C814        O820   1.260       .  A
C821        C822   1.406       .  A
C821        C826   1.406       .  A
C822        C823   1.398   1_545  A
C822        H835   1.083       .  S
C823        C824   1.400       .  A
C823        H836   1.084       .  S
C824        C825   1.400   1_565  A
C824        C827   1.439       .  S
C825        C826   1.399       .  A
C825        H837   1.084       .  S
C826        H838   1.083       .  S
C827        C828   1.206       .  T
C828        C829   1.439       .  S
C829        C830   1.400       .  A
C829        C834   1.400       .  A
C830        C831   1.399       .  A
C830        H839   1.084       .  S
C831        C832   1.406       .  A
C831        H840   1.083       .  S
C832        C833   1.406       .  A
C833        C834   1.398       .  A
C833        H841   1.083       .  S
C834        H842   1.084       .  S
C843        C844   1.406       .  A
C843        C848   1.406       .  A
C844        C845   1.401       .  A
C844        H857   1.083       .  S
C845        C846   1.402       .  A
C845        H858   1.083       .  S
C846        C847   1.398       .  A
C846        C849   1.439       .  S
C847        C848   1.396       .  A
C847        H859   1.084       .  S
C848        H860   1.083       .  S
C849        C850   1.206       .  T
C850        C851   1.440       .  S
C851        C852   1.402       .  A
C851        C856   1.398       .  A
C852        C853   1.401       .  A
C852        H861   1.083       .  S
C853        C854   1.405       .  A
C853        H862   1.083       .  S
C854        C855   1.407       .  A
C855        C856   1.396       .  A
C855        H863   1.083       .  S
C856        H864   1.084       .  S
C865        C866   1.406       .  A
C865        C870   1.406       .  A
C866        C867   1.401       .  A
C866        H879   1.083       .  S
C867        C868   1.401       .  A
C867        H880   1.083       .  S
C868        C869   1.398       .  A
C868        C871   1.437       .  S
C869        C870   1.395       .  A
C869        H881   1.084       .  S
C870        H882   1.083       .  S
C871        C872   1.205       .  T
C872        C873   1.437       .  S
C873        C874   1.401       .  A
C873        C878   1.398       .  A
C874        C875   1.400       .  A
C874        H883   1.083       .  S
C875        C876   1.405       .  A
C875        H884   1.083       .  S
C876        C877   1.406       .  A
C877        C878   1.395       .  A
C877        H885   1.083       .  S
C878        H886   1.084       .  S
C887       C1220   1.406   1_554  A
C887        C892   1.406       .  A
C888       C1219   1.406       .  A
C888        C889   1.398       .  A
C888        H901   1.083       .  S
C889       C1222   1.399   1_545  A
C889        H902   1.084   1_545  S
C890       C1221   1.399   1_564  A
C890        C891   1.400   1_565  A
C890        C893   1.440       .  S
C891        C892   1.399       .  A
C891        H903   1.083       .  S
C892        H904   1.083       .  S
C893        C894   1.206       .  T
C894        C895   1.440       .  S
C895        C896   1.400       .  A
C895       C1232   1.400   1_554  A
C896        C897   1.399       .  A
C896        H905   1.084       .  S
C897        C898   1.406       .  A
C897        H906   1.083       .  S
C898       C1231   1.406   1_554  A
C899       C1230   1.406       .  A
C899        C900   1.398       .  A
C899        H907   1.083       .  S
C900       C1227   1.400       .  A
C900        H908   1.084       .  S
C909        C914   1.406       .  A
C910        C911   1.398       .  A
C910        H923   1.083       .  S
C911        H924   1.084       .  S
C912        C913   1.400       .  A
C912        C915   1.440       .  S
C913       C1246   1.399       .  A
C913        H925   1.084       .  S
C914       C1245   1.399       .  A
C914        H926   1.083       .  S
C915        C916   1.206   1_655  T
C916        C917   1.440       .  S
C917        C918   1.400   1_455  A
C918       C1251   1.399       .  A
C918        H927   1.084       .  S
C919       C1250   1.399       .  A
C919        H928   1.083       .  S
C920       C1253   1.406   1_556  A
C921       C1252   1.406       .  A
C921        C922   1.399       .  A
C921        H929   1.083       .  S
C922        H930   1.084       .  S
C931        C932   1.405       .  A
C932        C933   1.401       .  A
C932        H945   1.083       .  S
C933        H946   1.083       .  S
C934        C935   1.398       .  A
C934        C937   1.439       .  S
C935        C936   1.396       .  A
C935        H947   1.084       .  S
C936        H948   1.083       .  S
C938        C939   1.439       .  S
C939        C944   1.398       .  A
C940        C941   1.401       .  A
C940        H949   1.083       .  S
C941        H950   1.083       .  S
C942        C943   1.406       .  A
C943        C944   1.395       .  A
C943        H951   1.083       .  S
C944        H952   1.084       .  S
C953        C958   1.406       .  A
C954        C955   1.400       .  A
C954        H967   1.083       .  S
C955        H968   1.083       .  S
C956        C957   1.398       .  A
C956        C959   1.438       .  S
C957        C958   1.396       .  A
C957        H969   1.084       .  S
C958        H970   1.083       .  S
C959        C960   1.205       .  T
C960        C961   1.438       .  S
C961        C962   1.401       .  A
C962        C963   1.400       .  A
C962        H971   1.083       .  S
C963        H972   1.083       .  S
C964        C965   1.406       .  A
C965        C966   1.396       .  A
C965        H973   1.083       .  S
C966        H974   1.084       .  S
C975        C976   1.406       .  A
C976        C977   1.398       .  A
C976        H989   1.083       .  S
C977        C978   1.400       .  A
C977        H990   1.084       .  S
C979        C980   1.399       .  A
C979        H991   1.084       .  S
C980        H992   1.083       .  S
C981        C982   1.206       .  T
C982        C983   1.440       .  S
C983        C984   1.400       .  A
C984        C985   1.399       .  A
C984        H993   1.084       .  S
C985        C986   1.406       .  A
C985        H994   1.083       .  S
C987        C988   1.398       .  A
C987        H995   1.083       .  S
C988        H996   1.084       .  S
In997       O999   2.231       .  S
In997      O1000   2.249       .  S
In997      O1008   2.253       .  S
In997      O1002   2.247       .  S
In997      O1004   2.250       .  S
In997      O1005   2.248       .  S
In997      O1006   2.254       .  S
In997      O1009   2.232       .  S
C998       O1004   1.260       .  A
C998       O1006   1.259       .  A
C998       C1094   1.465       .  S
O999       C1007   1.260       .  A
O1000      C1007   1.261       .  A
C1001      O1008   1.259       .  A
C1001      O1002   1.260       .  A
C1001      C1133   1.464       .  S
C1003      O1005   1.261       .  A
C1003      O1009   1.260       .  A
C1003      C1037   1.460       .  S
C1007      C1024   1.460       .  S
In1010     O1012   2.225       .  S
In1010     O1015   2.237       .  S
In1010     O1017   2.249       .  S
In1010     O1019   2.225       .  S
In1010     O1022   2.240       .  S
C1011      O1017   1.263       .  A
C1011      O1019   1.260       .  A
C1011      C1072   1.459       .  S
O1012      C1020   1.260       .  A
C1014      O1015   1.262       .  A
C1014      C1307   1.476       .  S
C1016      O1018   1.262       .  A
C1020      C1296   1.476       .  S
In1023     O1025   2.245       .  S
In1023     O1028   2.244       .  S
In1023     O1030   2.251       .  S
In1023     O1032   2.228       .  S
In1023     O1035   2.224       .  S
C1024      O1030   1.263       .  A
C1024      O1032   1.259       .  A
O1025      C1033   1.259       .  A
C1027      O1028   1.263       .  A
C1027      C1318   1.477       .  S
C1029      O1035   1.260       .  A
C1029      C1274   1.476       .  S
C1033      C1144   1.465       .  S
In1036     O1041   2.243       .  S
In1036     O1043   2.250       .  S
In1036     O1045   2.228       .  S
In1036     O1048   2.225       .  S
C1037      O1043   1.263       .  A
C1037      O1045   1.259       .  A
O1039      C1046   1.262       .  A
C1040      C1241   1.477       .  S
C1042      C1263   1.476       .  S
C1046      C1141   1.464       .  S
In1049     O1051   2.225       .  S
In1049     O1054   2.242       .  S
In1049     O1056   2.253       .  S
In1049     O1058   2.223       .  S
C1050      O1056   1.263       .  A
C1050      O1058   1.259       .  A
C1050      C1068   1.460       .  S
O1051      C1059   1.260       .  A
C1053      O1054   1.263       .  A
C1053      C1252   1.477       .  S
C1055      O1057   1.262       .  A
C1055      C1102   1.465       .  S
C1059      C1285   1.476       .  S
In1062     O1064   2.227       .  S
In1062     O1065   2.251       .  S
In1062     O1073   2.248       .  S
In1062     O1067   2.248       .  S
In1062     O1069   2.247       .  S
In1062     O1070   2.252       .  S
In1062     O1071   2.253       .  S
In1062     O1074   2.228       .  S
C1063      O1069   1.260       .  A
C1063      O1071   1.259       .  A
C1063      C1124   1.464       .  S
O1064      C1072   1.259       .  A
O1065      C1072   1.261       .  A
C1066      O1073   1.259       .  A
C1066      O1067   1.260       .  A
C1066      C1085   1.463       .  S
C1068      O1070   1.261       .  A
C1068      O1074   1.260       .  A
In1075     O1080   2.238       .  S
In1075     O1082   2.253       .  S
In1075     O1084   2.226       .  S
In1075     O1087   2.223       .  S
C1076      O1082   1.263       .  A
C1076      O1084   1.259       .  A
C1076      C1107   1.461       .  S
O1077      C1085   1.259       .  A
O1078      C1085   1.261       .  A
C1079      O1086   1.262       .  A
C1079      C1219   1.477       .  S
C1081      O1087   1.260       .  A
C1081      C1197   1.475       .  S
In1088     O1090   2.225       .  S
In1088     O1091   2.260       .  S
In1088     O1093   2.241       .  S
In1088     O1095   2.250       .  S
In1088     O1097   2.228       .  S
C1089      O1095   1.262       .  A
C1089      O1097   1.259       .  A
C1089      C1150   1.460       .  S
O1090      C1098   1.259       .  A
O1091      C1098   1.265       .  A
C1092      O1093   1.262       .  A
C1092      C1230   1.477       .  S
C1094      O1096   1.261       .  A
C1094      O1100   1.259       .  A
C1098      C1175   1.477       .  S
In1101     O1103   2.226   1_455  S
In1101     O1104   2.257   1_455  S
In1101     O1112   2.248       .  S
In1101     O1106   2.246   1_455  S
In1101     O1108   2.247       .  S
C1102      O1108   1.260       .  A
O1103      C1111   1.259       .  A
O1104      C1111   1.262       .  A
C1105      O1112   1.259   1_655  A
C1105      O1106   1.260       .  A
C1107      O1109   1.262       .  A
C1107      O1113   1.259       .  A
C1111      C1115   1.461       .  S
In1114     O1116   2.241       .  S
In1114     O1117   2.251       .  S
In1114     O1125   2.239       .  S
In1114     O1119   2.242       .  S
In1114     O1121   2.257       .  S
In1114     O1122   2.253       .  S
In1114     O1123   2.222       .  S
In1114     O1126   2.222       .  S
C1115      O1121   1.263       .  A
C1115      O1123   1.259       .  A
O1116      C1124   1.260       .  A
O1117      C1124   1.262       .  A
C1118      O1125   1.262       .  A
C1118      O1119   1.263       .  A
C1118      C1153   1.477       .  S
C1120      O1122   1.265       .  A
C1120      O1126   1.260       .  A
C1120      C1208   1.475       .  S
In1127     O1129   2.225       .  S
In1127     O1130   2.261       .  S
In1127     O1138   2.240       .  S
In1127     O1132   2.241       .  S
In1127     O1134   2.247       .  S
In1127     O1135   2.252       .  S
In1127     O1136   2.228       .  S
In1127     O1139   2.239       .  S
C1128      O1134   1.263       .  A
C1128      O1136   1.259       .  A
C1128      C1146   1.460       .  S
O1129      C1137   1.259       .  A
O1130      C1137   1.265       .  A
C1131      O1138   1.262       .  A
C1131      O1132   1.262       .  A
C1131      C1164   1.476       .  S
C1133      O1135   1.262       .  A
C1133      O1139   1.259       .  A
C1137      C1186   1.477       .  S
In1140     O1151   2.252       .  S
In1140     O1145   2.251       .  S
In1140     O1147   2.250       .  S
In1140     O1148   2.247       .  S
In1140     O1149   2.251       .  S
In1140     O1152   2.232       .  S
C1141      O1147   1.260       .  A
C1141      O1149   1.258       .  A
O1142      C1150   1.260       .  A
O1143      C1150   1.261       .  A
C1144      O1151   1.259       .  A
C1144      O1145   1.260       .  A
C1146      O1148   1.261       .  A
C1146      O1152   1.260       .  A
C1153      C1154   1.406       .  A
C1153      C1158   1.406       .  A
C1154      C1155   1.398   1_545  A
C1154      H1167   1.083       .  S
C1155      C1156   1.400       .  A
C1155      H1168   1.084       .  S
C1156      C1157   1.400   1_565  A
C1156      C1159   1.439       .  S
C1157      C1158   1.399       .  A
C1157      H1169   1.084       .  S
C1158      H1170   1.083       .  S
C1159      C1160   1.206       .  T
C1160      C1161   1.439       .  S
C1161      C1162   1.400       .  A
C1161      C1166   1.400       .  A
C1162      C1163   1.399       .  A
C1162      H1171   1.084       .  S
C1163      C1164   1.406       .  A
C1163      H1172   1.083       .  S
C1164      C1165   1.406       .  A
C1165      C1166   1.398       .  A
C1165      H1173   1.083       .  S
C1166      H1174   1.084       .  S
C1175      C1176   1.406       .  A
C1175      C1180   1.406       .  A
C1176      C1177   1.401       .  A
C1176      H1189   1.083       .  S
C1177      C1178   1.402       .  A
C1177      H1190   1.083       .  S
C1178      C1179   1.398       .  A
C1178      C1181   1.439       .  S
C1179      C1180   1.396       .  A
C1179      H1191   1.084       .  S
C1180      H1192   1.083       .  S
C1181      C1182   1.206       .  T
C1182      C1183   1.440       .  S
C1183      C1184   1.402       .  A
C1183      C1188   1.398       .  A
C1184      C1185   1.401       .  A
C1184      H1193   1.083       .  S
C1185      C1186   1.405       .  A
C1185      H1194   1.083       .  S
C1186      C1187   1.407       .  A
C1187      C1188   1.396       .  A
C1187      H1195   1.083       .  S
C1188      H1196   1.084       .  S
C1197      C1198   1.406       .  A
C1197      C1202   1.406       .  A
C1198      C1199   1.401       .  A
C1198      H1211   1.083       .  S
C1199      C1200   1.401       .  A
C1199      H1212   1.083       .  S
C1200      C1201   1.398       .  A
C1200      C1203   1.437       .  S
C1201      C1202   1.395       .  A
C1201      H1213   1.084       .  S
C1202      H1214   1.083       .  S
C1203      C1204   1.205       .  T
C1204      C1205   1.437       .  S
C1205      C1206   1.401       .  A
C1205      C1210   1.398       .  A
C1206      C1207   1.400       .  A
C1206      H1215   1.083       .  S
C1207      C1208   1.405       .  A
C1207      H1216   1.083       .  S
C1208      C1209   1.406       .  A
C1209      C1210   1.395       .  A
C1209      H1217   1.083       .  S
C1210      H1218   1.084       .  S
C1219      C1224   1.406       .  A
C1220      C1221   1.398       .  A
C1220      H1233   1.083       .  S
C1221      H1234   1.084   1_545  S
C1222      C1223   1.400   1_565  A
C1222      C1225   1.440       .  S
C1223      C1224   1.399       .  A
C1223      H1235   1.083       .  S
C1224      H1236   1.083       .  S
C1225      C1226   1.206       .  T
C1226      C1227   1.440       .  S
C1227      C1228   1.400       .  A
C1228      C1229   1.399       .  A
C1228      H1237   1.084       .  S
C1229      C1230   1.406       .  A
C1229      H1238   1.083       .  S
C1231      C1232   1.398       .  A
C1231      H1239   1.083       .  S
C1232      H1240   1.084       .  S
C1241      C1246   1.406       .  A
C1242      C1243   1.398       .  A
C1242      H1255   1.083       .  S
C1243      H1256   1.084       .  S
C1244      C1245   1.400       .  A
C1244      C1247   1.440       .  S
C1245      H1257   1.084       .  S
C1246      H1258   1.083       .  S
C1247      C1248   1.206   1_655  T
C1248      C1249   1.440       .  S
C1249      C1250   1.400   1_455  A
C1250      H1259   1.084       .  S
C1251      H1260   1.083       .  S
C1253      C1254   1.399       .  A
C1253      H1261   1.083       .  S
C1254      H1262   1.084       .  S
C1263      C1264   1.405       .  A
C1264      C1265   1.401       .  A
C1264      H1277   1.083       .  S
C1265      H1278   1.083       .  S
C1266      C1267   1.398       .  A
C1266      C1269   1.439       .  S
C1267      C1268   1.396       .  A
C1267      H1279   1.084       .  S
C1268      H1280   1.083       .  S
C1270      C1271   1.439       .  S
C1271      C1276   1.398       .  A
C1272      C1273   1.401       .  A
C1272      H1281   1.083       .  S
C1273      H1282   1.083       .  S
C1274      C1275   1.406       .  A
C1275      C1276   1.395       .  A
C1275      H1283   1.083       .  S
C1276      H1284   1.084       .  S
C1285      C1290   1.406       .  A
C1286      C1287   1.400       .  A
C1286      H1299   1.083       .  S
C1287      H1300   1.083       .  S
C1288      C1289   1.398       .  A
C1288      C1291   1.438       .  S
C1289      C1290   1.396       .  A
C1289      H1301   1.084       .  S
C1290      H1302   1.083       .  S
C1291      C1292   1.205       .  T
C1292      C1293   1.438       .  S
C1293      C1294   1.401       .  A
C1294      C1295   1.401       .  A
C1294      H1303   1.083       .  S
C1295      H1304   1.083       .  S
C1296      C1297   1.406       .  A
C1297      C1298   1.396       .  A
C1297      H1305   1.083       .  S
C1298      H1306   1.084       .  S
C1307      C1308   1.406       .  A
C1308      C1309   1.398       .  A
C1308      H1321   1.083       .  S
C1309      C1310   1.400       .  A
C1309      H1322   1.084       .  S
C1311      C1312   1.399       .  A
C1311      H1323   1.083       .  S
C1312      H1324   1.083       .  S
C1313      C1314   1.206       .  T
C1314      C1315   1.440       .  S
C1315      C1316   1.400       .  A
C1316      C1317   1.399       .  A
C1316      H1325   1.084       .  S
C1317      C1318   1.406       .  A
C1317      H1326   1.083       .  S
C1319      C1320   1.398       .  A
C1319      H1327   1.083       .  S
C1320      H1328   1.084       .  S
