geometry optimzed in LAMMPS
_audit_creation_date              2020-12-01 
_audit_creation_method            'lammps2cif' 
_symmetry_space_group_name_H-M    'P1' 
_symmetry_Int_Tables_number       1 
_symmetry_cell_setting            triclinic 
loop_ 
_symmetry_equiv_pos_as_xyz 
  x,y,z 
_cell_length_a                    39.72311185 
_cell_length_b                    38.83397418505515 
_cell_length_c                    39.10457981431198 
_cell_angle_alpha                 92.8917421908155 
_cell_angle_beta                  92.53835782516767 
_cell_angle_gamma                 90.9402020572091 
loop_ 
_atom_site_label 
_atom_site_type_symbol 
_atom_site_fract_x 
_atom_site_fract_y 
_atom_site_fract_z 
_atom_site_charge 
C1          C  0.77095402  0.48538058  0.00751584     0.86700
C2          C  0.75224639  0.51619921  0.02442515    -0.53500
C3          C  0.73310960  0.53482407  0.00164555     0.09600
C4          C  0.73791175  0.52260009  0.96394649     0.20600
C5          C  0.74227040  0.46533598  0.98652191    -0.54300
C6          C  0.72420785  0.48502630  0.96398117     0.09700
C7          C  0.79214513  0.50065440  0.98099164    -0.53800
C8          C  0.77634980  0.52068517  0.95901755     0.10300
H9          H  0.74986096  0.51894939  0.05196132     0.14800
H10         H  0.72520661  0.53832808  0.94471236     0.00500
H11         H  0.73315231  0.44018478  0.99310406     0.15100
H12         H  0.81936565  0.49732695  0.98062508     0.14900
C13         C  0.53773026  0.73411288  0.97668090     0.86700
C14         C  0.51127913  0.75539058  0.95685080    -0.53500
C15         C  0.48997712  0.77398625  0.97760771     0.09600
C16         C  0.49537471  0.76651448  0.01581664     0.20600
C17         C  0.55475365  0.76157651  0.00249751    -0.54300
C18         C  0.53236233  0.77835843  0.02313958     0.09700
C19         C  0.51754676  0.71146667  0.99911471    -0.53800
C20         C  0.49490207  0.72723667  0.01818972     0.10300
H21         H  0.51303433  0.75965291  0.92976199     0.14800
H22         H  0.47729863  0.77942309  0.03278912     0.00500
H23         H  0.58065513  0.77045295  0.00165529     0.15100
H24         H  0.52044796  0.68383081  0.00011334     0.14900
C25         C  0.04243317  0.50251147  0.76605489     0.86700
C26         C  0.04056973  0.47400066  0.73719172    -0.53500
C27         C  0.01358547  0.47591597  0.71350452     0.09600
C28         C  0.99004499  0.50629644  0.72381745     0.20600
C29         C  0.04091689  0.53619233  0.74639591    -0.54300
C30         C  0.01464600  0.53758445  0.72223366     0.09700
C31         C  0.00953779  0.49982780  0.78269110    -0.53800
C32         C  0.98186856  0.50239916  0.76233226     0.10300
H33         H  0.06254913  0.45862100  0.73263291     0.14800
H34         H  0.96642529  0.50809436  0.70822122     0.00500
H35         H  0.06288282  0.55315808  0.74587537     0.15100
H36         H  0.00831305  0.49894796  0.81045594     0.14900
C37         C  0.50208007  0.96401056  0.71897592     0.86700
C38         C  0.52712099  0.98146438  0.74665544    -0.53500
C39         C  0.51310249  0.00742886  0.76620167     0.09600
C40         C  0.47557253  0.01309776  0.75688371     0.20600
C41         C  0.47261721  0.95177345  0.73992420    -0.54300
C42         C  0.45978742  0.97699211  0.76155528     0.09700
C43         C  0.48807384  0.99384181  0.69944717    -0.53800
C44         C  0.47436679  0.01950264  0.71829977     0.10300
H45         H  0.55240873  0.97267973  0.75232699     0.14800
H46         H  0.46377179  0.03388257  0.77252242     0.00500
H47         H  0.46711908  0.92454181  0.74233252     0.15100
H48         H  0.48773977  0.99420140  0.67171612     0.14900
C49         C  0.71199170  0.00251219  0.53325572     0.86700
C50         C  0.73289059  0.97156691  0.51964687    -0.53500
C51         C  0.75456263  0.97972614  0.49428671     0.09600
C52         C  0.75103068  0.01748380  0.48378232     0.20600
C53         C  0.73915156  0.03069239  0.54324559    -0.54300
C54         C  0.76136428  0.03713501  0.51810333     0.09700
C55         C  0.69386724  0.01483381  0.50204708    -0.53800
C56         C  0.71289320  0.02369144  0.47631491     0.10300
H57         H  0.73318887  0.94709291  0.53156812     0.14800
H58         H  0.76638523  0.02449807  0.46216297     0.00500
H59         H  0.74397941  0.03972337  0.56977059     0.15100
H60         H  0.66650141  0.01556722  0.50021608     0.14900
C61         C  0.99607898  0.79538887  0.45778431     0.86700
C62         C  0.01990465  0.77267335  0.47937259    -0.53500
C63         C  0.00361264  0.75191559  0.50120274     0.09600
C64         C  0.96537396  0.75793100  0.50095979     0.20600
C65         C  0.97030165  0.76900085  0.44052566    -0.54300
C66         C  0.95536363  0.74767071  0.46305270     0.09700
C67         C  0.97628455  0.81551678  0.48337896    -0.53800
C68         C  0.96085507  0.79725593  0.50660636     0.10300
H69         H  0.04652592  0.77056683  0.47485205     0.14800
H70         H  0.95176281  0.74324436  0.51972509     0.00500
H71         H  0.96949762  0.76296568  0.41311088     0.15100
H72         H  0.97496407  0.84341783  0.48324993     0.14900
C73         C  0.22344495  0.49397811  0.01096819     0.86700
C74         C  0.24563449  0.47758533  0.98313380    -0.53500
C75         C  0.26683560  0.50034188  0.96754077     0.09600
C76         C  0.26061475  0.53821353  0.98028810     0.20600
C77         C  0.24943937  0.51424668  0.03523791    -0.54300
C78         C  0.27031684  0.53660879  0.01913808     0.09700
C79         C  0.20418646  0.52107344  0.99328507    -0.53800
C80         C  0.22205670  0.54439453  0.97737152     0.10300
H81         H  0.25002630  0.45022068  0.98279246     0.14800
H82         H  0.27383133  0.55814155  0.96671510     0.00500
H83         H  0.25379907  0.50774882  0.06171445     0.15100
H84         H  0.17696036  0.52184218  0.99351814     0.14900
O85         O  0.03497583  0.53855482  0.96977948    -0.71600
O86         O  0.96245177  0.50901852  0.02646024    -0.71800
O87         O  0.03078069  0.51043863  0.03145352    -0.71700
O88         O  0.96545951  0.53962936  0.96423093    -0.71700
O89         O  0.96301047  0.48863106  0.93893767    -0.71600
O90         O  0.03208998  0.46032499  0.00454827    -0.71600
O91         O  0.96411806  0.45835970  0.00058274    -0.71600
O92         O  0.03115661  0.48850397  0.94261793    -0.71800
V93         V  0.99813026  0.52361244  0.99726312     1.35200
V94         V  0.99753213  0.47505652  0.97219576     1.35200
C95         C  0.04619657  0.51745221  0.94710195     0.77700
C96         C  0.95226410  0.47759388  0.02398089     0.77700
C97         C  0.04280062  0.48054214  0.02963158     0.77600
C98         C  0.95289342  0.51959568  0.94005452     0.77600
N99         N  0.92868399  0.53259106  0.91435294    -0.03300
C100        C  0.94252488  0.54926971  0.88807797    -0.00700
C101        C  0.94046108  0.58468432  0.89457903    -0.23600
C102        C  0.91713847  0.58933781  0.91881396    -0.23800
C103        C  0.90704472  0.55670865  0.92705079    -0.00800
H104        H  0.94913760  0.60503561  0.87912081     0.13000
H105        H  0.90400653  0.61316799  0.92369256     0.13000
C106        C  0.99049497  0.52522678  0.26079772     0.86700
C107        C  0.02336574  0.52758604  0.24048209    -0.53500
C108        C  0.03134325  0.49716151  0.22298862     0.09600
C109        C  0.00704128  0.46732888  0.22938222     0.20600
C110        C  0.96391768  0.51135118  0.23284155    -0.54300
C111        C  0.97323930  0.48157129  0.21504650     0.09700
C112        C  0.99471810  0.49511029  0.28343612    -0.53800
C113        C  0.00444220  0.46571432  0.26830605     0.10300
H114        H  0.03514134  0.55211466  0.23543900     0.14800
H115        H  0.01480103  0.44233680  0.21769149     0.00500
H116        H  0.94172926  0.52515078  0.22534366     0.15100
H117        H  0.99159834  0.49706944  0.31103105     0.14900
N118        N  0.92953008  0.46251814  0.04778960    -0.03300
C119        C  0.94509466  0.44080033  0.06986758    -0.00700
C120        C  0.93739463  0.40679415  0.05928836    -0.23600
C121        C  0.91173088  0.40769010  0.03538199    -0.23800
C122        C  0.90400528  0.44211362  0.03266050    -0.00800
H123        H  0.94380701  0.38328478  0.07118802     0.13000
H124        H  0.89628110  0.38525567  0.02763875     0.13000
N125        N  0.07737661  0.52354628  0.92939203    -0.03300
C126        C  0.08451015  0.49743026  0.90627733    -0.00700
C127        C  0.10724819  0.47530735  0.92077264    -0.23600
C128        C  0.11952404  0.49243181  0.95022697    -0.23800
C129        C  0.10604030  0.52536365  0.94999126    -0.00800
H130        H  0.11915567  0.45353676  0.90823759     0.13000
H131        H  0.14327443  0.48581719  0.96228407     0.13000
O132        O  0.53693633  0.47097547  0.99885818    -0.71600
O133        O  0.47795329  0.53341751  0.04502586    -0.71800
O134        O  0.47302622  0.46680444  0.02145101    -0.71700
O135        O  0.54180502  0.53680542  0.02182761    -0.71700
O136        O  0.52327551  0.55224318  0.97198559    -0.71600
O137        O  0.45086842  0.48468573  0.97397567    -0.71600
O138        O  0.45913184  0.55162278  0.99633880    -0.71600
O139        O  0.51492156  0.48518812  0.94989926    -0.71800
V140        V  0.50692959  0.50237225  0.02079787     1.35200
V141        V  0.48748429  0.51808153  0.97389293     1.35200
C142        C  0.53613216  0.46744234  0.96649213     0.77700
C143        C  0.45832324  0.55307631  0.02883319     0.77700
C144        C  0.44945280  0.46441654  0.99839789     0.77600
C145        C  0.54520841  0.55579171  0.99663449     0.77600
N146        N  0.57215768  0.58196974  0.99753891    -0.03300
C147        C  0.59592491  0.57949109  0.02360881    -0.00700
C148        C  0.59154426  0.60499792  0.04875581    -0.23600
C149        C  0.56861208  0.62702533  0.03513776    -0.23800
C150        C  0.56177564  0.61513145  0.00134910    -0.00800
H151        H  0.60835201  0.61122825  0.07082458     0.13000
H152        H  0.56542075  0.65322733  0.04516176     0.13000
C153        C  0.47986823  0.23053900  0.94931133     0.86700
C154        C  0.45419237  0.25546515  0.96525657    -0.53500
C155        C  0.46738165  0.27581374  0.99271868     0.09600
C156        C  0.50456223  0.26785932  0.00226268     0.20600
C157        C  0.50898229  0.25496448  0.94106161    -0.54300
C158        C  0.52185751  0.27577411  0.96844993     0.09700
C159        C  0.49312471  0.21015165  0.97849499    -0.53800
C160        C  0.50549771  0.22839341  0.00612552     0.10300
H161        H  0.42991430  0.26039350  0.95277841     0.14800
H162        H  0.51532561  0.28221180  0.02553637     0.00500
H163        H  0.51255626  0.26066232  0.91467081     0.15100
H164        H  0.49281275  0.18201865  0.97745766     0.14900
O165        O  0.48375050  0.04990817  0.03705194    -0.71600
O166        O  0.44704607  0.98262521  0.96862489    -0.71800
O167        O  0.46439872  0.98279869  0.03647895    -0.71700
O168        O  0.46585820  0.05000761  0.96879010    -0.71700
O169        O  0.51496084  0.03265792  0.95375307    -0.71600
O170        O  0.51572801  0.96892851  0.02605540    -0.71600
O171        O  0.49735575  0.96513840  0.95825481    -0.71600
O172        O  0.53402261  0.03631359  0.02219281    -0.71800
V173        V  0.46629490  0.01611095  0.00247596     1.35200
V174        V  0.51465512  0.00128676  0.99039283     1.35200
C175        C  0.51540611  0.05434211  0.04145353     0.77700
C176        C  0.46580779  0.96198032  0.95212747     0.77700
C177        C  0.48958473  0.96413560  0.04278660     0.77600
C178        C  0.48969125  0.05162275  0.94837699     0.77600
N179        N  0.45120439  0.93561831  0.92756547    -0.03300
C180        C  0.42921430  0.94564861  0.90187670    -0.00700
C181        C  0.39899193  0.92772941  0.90260272    -0.23600
C182        C  0.40318877  0.90344051  0.92634263    -0.23800
C183        C  0.43584032  0.90720602  0.94004778    -0.00800
H184        H  0.37835018  0.92786217  0.88357381     0.13000
H185        H  0.38598777  0.88196647  0.92914036     0.13000
C186        C  0.52711257  0.98464014  0.27806705     0.86700
C187        C  0.50433682  0.95986353  0.25442228    -0.53500
C188        C  0.48112757  0.97616597  0.23373811     0.09600
C189        C  0.48151188  0.01551230  0.24117557     0.20600
C190        C  0.54166846  0.01015410  0.25308267    -0.54300
C191        C  0.51798696  0.02454077  0.23140487     0.09700
C192        C  0.50311356  0.00541084  0.29861410    -0.53800
C193        C  0.47960355  0.02182961  0.28062852     0.10300
H194        H  0.51065859  0.93303235  0.24954305     0.14800
H195        H  0.46126291  0.02902568  0.22725782     0.00500
H196        H  0.56844836  0.01312472  0.25034690     0.15100
H197        H  0.50447738  0.00714216  0.32658855     0.14900
N198        N  0.48700602  0.93630006  0.06603682    -0.03300
C199        C  0.46161837  0.93844798  0.08839410    -0.00700
C200        C  0.43748333  0.91307515  0.08013760    -0.23600
C201        C  0.45082183  0.89165431  0.05566919    -0.23800
C202        C  0.48315788  0.90410673  0.05085038    -0.00800
H203        H  0.41641876  0.90638944  0.09531384     0.13000
H204        H  0.44169673  0.86556660  0.04940122     0.13000
N205        N  0.48580012  0.07081433  0.91747640    -0.03300
C206        C  0.48454624  0.05100832  0.88781884    -0.00700
C207        C  0.45356723  0.05379036  0.87087485    -0.23600
C208        C  0.43673404  0.07907442  0.88785860    -0.23800
C209        C  0.45850058  0.09168538  0.91417501    -0.00800
H210        H  0.44778445  0.04524781  0.84461630     0.13000
H211        H  0.41552734  0.09246196  0.87676497     0.13000
O212        O  0.01785722  0.55248145  0.44631172    -0.71600
O213        O  0.05747222  0.48819677  0.50767184    -0.71800
O214        O  0.03111672  0.48397567  0.44320642    -0.71700
O215        O  0.04567364  0.55698681  0.51154541    -0.71700
O216        O  0.99617974  0.54816634  0.53116272    -0.71600
O217        O  0.98322847  0.47105533  0.46435348    -0.71600
O218        O  0.00871354  0.47945598  0.52904927    -0.71600
O219        O  0.96888475  0.53984436  0.46525677    -0.71800
V220        V  0.03701765  0.52037718  0.47764913     1.35200
V221        V  0.99005761  0.51009644  0.49692360     1.35200
C222        C  0.98615968  0.55637366  0.44471730     0.77700
C223        C  0.03958393  0.47239159  0.52831871     0.77700
C224        C  0.00593286  0.46356988  0.44335362     0.77600
C225        C  0.02403242  0.56504766  0.53331861     0.77600
N226        N  0.03194023  0.59261826  0.55942431    -0.03300
C227        C  0.04843096  0.62128890  0.54901184    -0.00700
C228        C  0.07725494  0.62905820  0.56894779    -0.23600
C229        C  0.07785028  0.60676631  0.59446212    -0.23800
C230        C  0.04967547  0.58547701  0.58912494    -0.00800
H231        H  0.09290941  0.65210629  0.56840660     0.13000
H232        H  0.09451271  0.60901980  0.61716826     0.13000
O233        O  0.53367456  0.03171378  0.47224446    -0.71600
O234        O  0.46250225  0.04372504  0.53729155    -0.71800
O235        O  0.52792523  0.02421754  0.53995628    -0.71700
O236        O  0.46780551  0.05359315  0.46931558    -0.71700
O237        O  0.44826569  0.00140990  0.45917502    -0.71600
O238        O  0.51335152  0.97067643  0.52849495    -0.71600
O239        O  0.44796267  0.99007298  0.52653246    -0.71600
O240        O  0.51407566  0.97997086  0.45976666    -0.71800
V241        V  0.49759301  0.03731725  0.50428460     1.35200
V242        V  0.48136200  0.98657110  0.49351359     1.35200
C243        C  0.53634118  0.00293041  0.45542351     0.77700
C244        C  0.44339530  0.01818441  0.54330063     0.77700
C245        C  0.53131322  0.99288592  0.54667006     0.77600
C246        C  0.44650828  0.03338325  0.45336538     0.77600
N247        N  0.55309548  0.98417857  0.57608115    -0.03300
C248        C  0.57856405  0.00779954  0.58453229    -0.00700
C249        C  0.57145923  0.02759798  0.61357977    -0.23600
C250        C  0.54392772  0.01269640  0.62637391    -0.23800
C251        C  0.53672182  0.98293131  0.60603690    -0.00800
H252        H  0.58796217  0.04589778  0.62810892     0.13000
H253        H  0.53715165  0.01738658  0.65265187     0.13000
C254        C  0.21131211  0.06078399  0.51672534     0.86700
C255        C  0.23281060  0.04046720  0.54287181    -0.53500
C256        C  0.25136158  0.01403435  0.52836960     0.09600
C257        C  0.24320931  0.00873246  0.48932806     0.20600
C258        C  0.23712811  0.07094226  0.49014228    -0.54300
C259        C  0.25617139  0.04394098  0.47760341     0.09700
C260        C  0.18895187  0.03436124  0.49781794    -0.53800
C261        C  0.20395377  0.00709784  0.48380016     0.10300
H262        H  0.23759031  0.05036345  0.56910857     0.14800
H263        H  0.25500953  0.98620140  0.47664502     0.00500
H264        H  0.24317085  0.09757866  0.48583700     0.15100
H265        H  0.16163838  0.03705060  0.49541072     0.14900
O266        O  0.02704554  0.97892849  0.49690389    -0.71600
O267        O  0.96887640  0.04121239  0.54539127    -0.71800
O268        O  0.96362701  0.97478215  0.52076493    -0.71700
O269        O  0.03252403  0.04540620  0.52202158    -0.71700
O270        O  0.01188993  0.06318106  0.47392989    -0.71600
O271        O  0.94287122  0.99241447  0.47263571    -0.71600
O272        O  0.94813977  0.05873155  0.49712966    -0.71600
O273        O  0.00634936  0.99676337  0.44881583    -0.71800
V274        V  0.99762106  0.01049609  0.52033419     1.35200
V275        V  0.97778533  0.02737221  0.47404797     1.35200
C276        C  0.02681557  0.97743262  0.46437945     0.77700
C277        C  0.94819781  0.06016121  0.52956707     0.77700
C278        C  0.94140655  0.97142221  0.49650884     0.77600
C279        C  0.03389637  0.06671688  0.49847621     0.77600
N280        N  0.91712605  0.94270277  0.49441920    -0.03300
C281        C  0.89275154  0.94246624  0.46864808    -0.00700
C282        C  0.89887077  0.91660459  0.44424662    -0.23600
C283        C  0.92384566  0.89716505  0.45815616    -0.23800
C284        C  0.93086212  0.91090745  0.49120506    -0.00800
H285        H  0.88212348  0.90775689  0.42291339     0.13000
H286        H  0.92873488  0.87099900  0.44918482     0.13000
C287        C  0.97572966  0.23978609  0.52241789     0.86700
C288        C  0.00473906  0.26434796  0.53614926    -0.53500
C289        C  0.01902806  0.28354678  0.51177352     0.09600
C290        C  0.00430859  0.27401141  0.47512380     0.20600
C291        C  0.95157110  0.26426808  0.50342379    -0.54300
C292        C  0.96669746  0.28236597  0.47868497     0.09700
C293        C  0.99074339  0.21771617  0.49449632    -0.53800
C294        C  0.00561600  0.23435050  0.46961837     0.10300
H295        H  0.01047125  0.26954507  0.56311573     0.14800
H296        H  0.01652091  0.28801332  0.45478397     0.00500
H297        H  0.92657058  0.27017898  0.51191835     0.15100
H298        H  0.99075419  0.18980699  0.49543013     0.14900
N299        N  0.92495599  0.08184256  0.54826387    -0.03300
C300        C  0.89950566  0.06710347  0.56513613    -0.00700
C301        C  0.89800480  0.08221041  0.59789212    -0.23600
C302        C  0.92159034  0.10807099  0.60087654    -0.23800
C303        C  0.93669066  0.10854793  0.56984812    -0.00800
H304        H  0.87809775  0.07917808  0.61556992     0.13000
H305        H  0.92295580  0.12833264  0.62099640     0.13000
N306        N  0.04856951  0.95419472  0.44515778    -0.03300
C307        C  0.07410601  0.96828807  0.42752354    -0.00700
C308        C  0.06759126  0.96163173  0.39254721    -0.23600
C309        C  0.04134428  0.93849587  0.38896649    -0.23800
C310        C  0.03248446  0.93162676  0.42162264    -0.00800
H311        H  0.08349968  0.96715792  0.37176451     0.13000
H312        H  0.03474843  0.92307008  0.36572153     0.13000
N313        N  0.41883014  0.01921404  0.57009064    -0.03300
C314        C  0.39365097  0.99450019  0.56572969    -0.00700
C315        C  0.39879039  0.96853297  0.58812064    -0.23600
C316        C  0.42387740  0.98020820  0.61078515    -0.23800
C317        C  0.43238170  0.01324044  0.60185594    -0.00800
H318        H  0.38150801  0.94748685  0.59237531     0.13000
H319        H  0.42866530  0.96986189  0.63567719     0.13000
N320        N  0.05396303  0.44687599  0.55013589    -0.03300
C321        C  0.07487179  0.42313954  0.53620001    -0.00700
C322        C  0.10661396  0.42751365  0.55204110    -0.23600
C323        C  0.10329081  0.45029150  0.57964657    -0.23800
C324        C  0.06942394  0.45785830  0.58036337    -0.00800
H325        H  0.12772686  0.41052884  0.54918063     0.13000
H326        H  0.12215045  0.45534985  0.60013120     0.13000
N327        N  0.05751241  0.09612406  0.50149268    -0.03300
C328        C  0.04312472  0.12753529  0.49901629    -0.00700
C329        C  0.04602790  0.14542821  0.53051879    -0.23600
C330        C  0.06778609  0.12774543  0.55080217    -0.23800
C331        C  0.07768452  0.09971600  0.53086282    -0.00800
H332        H  0.04029448  0.17225317  0.53507389     0.13000
H333        H  0.08126877  0.13894515  0.57345997     0.13000
N334        N  0.56473281  0.99486738  0.43363409    -0.03300
C335        C  0.59538954  0.99113352  0.45005279    -0.00700
C336        C  0.59952225  0.95641483  0.45584559    -0.23600
C337        C  0.57880568  0.93901869  0.43160323    -0.23800
C338        C  0.56108191  0.96419286  0.41505634    -0.00800
H339        H  0.62217716  0.94535402  0.46675234     0.13000
H340        H  0.58360640  0.91319308  0.42160773     0.13000
N341        N  0.96952650  0.57855175  0.42030739    -0.03300
C342        C  0.94538823  0.59884701  0.43419868    -0.00700
C343        C  0.91363490  0.58652699  0.42351811    -0.23600
C344        C  0.91831623  0.56225116  0.39780116    -0.23800
C345        C  0.95270644  0.56223234  0.39259021    -0.00800
H346        H  0.88981286  0.59846252  0.42861062     0.13000
H347        H  0.89826813  0.55171203  0.38057603     0.13000
N348        N  0.55875984  0.44409413  0.94888138    -0.03300
C349        C  0.58103208  0.45852996  0.92791709    -0.00700
C350        C  0.57354242  0.44711425  0.89425080    -0.23600
C351        C  0.54999903  0.42122442  0.89530140    -0.23800
C352        C  0.54479150  0.41683232  0.92963550    -0.00800
H353        H  0.58799590  0.45171764  0.87207890     0.13000
H354        H  0.54313137  0.40327766  0.87396320     0.13000
N355        N  0.53042729  0.07709176  0.06903913    -0.03300
C356        C  0.54854518  0.06205121  0.09468011    -0.00700
C357        C  0.58000930  0.07752326  0.10005155    -0.23600
C358        C  0.58086436  0.10466222  0.07972943    -0.23800
C359        C  0.54992326  0.10526601  0.06207174    -0.00800
H360        H  0.59836486  0.07318198  0.12061622     0.13000
H361        H  0.60011424  0.12477231  0.08211917     0.13000
N362        N  0.43580539  0.57601475  0.04733841    -0.03300
C363        C  0.44941526  0.60212012  0.06859673    -0.00700
C364        C  0.43640504  0.60136270  0.10071751    -0.23600
C365        C  0.41206510  0.57626688  0.09882042    -0.23800
C366        C  0.41066487  0.56228285  0.06558822    -0.00800
H367        H  0.43924447  0.62117235  0.12117379     0.13000
H368        H  0.39293499  0.57386616  0.11747132     0.13000
N369        N  0.06684708  0.46928896  0.05602219    -0.03300
C370        C  0.05352914  0.45375698  0.08314821    -0.00700
C371        C  0.05987189  0.41866620  0.08013551    -0.23600
C372        C  0.08438198  0.41454785  0.05687078    -0.23800
C373        C  0.09066457  0.44681732  0.04510844    -0.00800
H374        H  0.05393014  0.39975252  0.09845665     0.13000
H375        H  0.10036444  0.39232271  0.05449004     0.13000
N376        N  0.00570097  0.43085270  0.42330007    -0.03300
C377        C  0.00489562  0.40145839  0.44085456    -0.00700
C378        C  0.03200355  0.38110008  0.43290643    -0.23600
C379        C  0.04810675  0.39613502  0.40746632    -0.23800
C380        C  0.03029935  0.42523390  0.40024187    -0.00800
H381        H  0.03497074  0.35442410  0.43895783     0.13000
H382        H  0.06563133  0.38303293  0.39106721     0.13000
N383        N  0.42024546  0.04766131  0.43114660    -0.03300
C384        C  0.39546678  0.06637381  0.44657462    -0.00700
C385        C  0.39278014  0.09868720  0.43348221    -0.23600
C386        C  0.41389985  0.09977449  0.40752486    -0.23800
C387        C  0.42977363  0.06852370  0.40569552    -0.00800
H388        H  0.37346675  0.11743334  0.43839774     0.13000
H389        H  0.41358252  0.11920022  0.38861637     0.13000
N390        N  0.42067722  0.44126244  0.00184391    -0.03300
C391        C  0.38974247  0.45480175  0.00697597    -0.00700
C392        C  0.37605380  0.44143040  0.03546040    -0.23600
C393        C  0.39717844  0.41668285  0.04646201    -0.23800
C394        C  0.42314288  0.41521677  0.02406384    -0.00800
H395        H  0.35045660  0.44463424  0.04336273     0.13000
H396        H  0.39059863  0.39760462  0.06439677     0.13000
C397        C  0.06821005  0.17608209  0.46898996    -0.26100
C398        C  0.04432491  0.14859136  0.46800119    -0.14200
C399        C  0.01571000  0.15084192  0.44566643     0.36400
C400        C  0.00817831  0.18285770  0.43167100    -0.25600
C401        C  0.02550770  0.21288629  0.44541591    -0.14800
C402        C  0.05886096  0.20846718  0.45741763     0.37500
N403        N  0.08025674  0.23809047  0.46519384    -0.89100
H404        H  0.09137293  0.17464370  0.48445510     0.18600
H405        H  0.98357636  0.18553033  0.41907034     0.18600
N406        N  0.99183323  0.12282477  0.44144023    -0.88100
H407        H  0.10289735  0.23399338  0.45310669     0.36000
H408        H  0.08560576  0.23995883  0.49165779     0.41100
H409        H  0.98819446  0.11658784  0.41519996     0.40700
H410        H  0.96890816  0.13123380  0.45067205     0.35600
C411        C  0.97375511  0.16054564  0.57508012    -0.26100
C412        C  0.94626490  0.14303770  0.55841415    -0.14200
C413        C  0.92362867  0.16182430  0.53823325     0.36400
C414        C  0.93057211  0.19664342  0.53254924    -0.25600
C415        C  0.96037746  0.21374547  0.54604517    -0.14800
C416        C  0.98109326  0.19516121  0.56944142     0.37500
N417        N  0.00966437  0.21025036  0.58850827    -0.89100
H418        H  0.98979029  0.14709404  0.59295957     0.18600
H419        H  0.91399845  0.20920409  0.51453398     0.18600
N420        N  0.89326261  0.14571378  0.52363511    -0.88100
H421        H  0.02854537  0.21664216  0.57211644     0.36000
H422        H  0.00198093  0.23185389  0.60290137     0.41100
H423        H  0.87285072  0.15958748  0.53265343     0.40700
H424        H  0.89323285  0.14745214  0.49703159     0.35600
C425        C  0.06066234  0.33043071  0.49877388    -0.26100
C426        C  0.03611385  0.31805523  0.52033504    -0.14200
C427        C  0.02566540  0.34058431  0.54741534     0.36400
C428        C  0.03856753  0.37430702  0.55126138    -0.25600
C429        C  0.06211916  0.38699457  0.52918236    -0.14800
C430        C  0.07408630  0.36433202  0.50325682     0.37500
N431        N  0.09920564  0.37523946  0.48073160    -0.89100
H432        H  0.06932396  0.31375039  0.47806077     0.18600
H433        H  0.02962135  0.39089714  0.57190594     0.18600
N434        N  0.00116786  0.33018242  0.57083553    -0.88100
H435        H  0.12144284  0.38106569  0.49524285     0.36000
H436        H  0.09121404  0.39783862  0.46971316     0.41100
H437        H  0.98148561  0.34771485  0.57056499     0.40700
H438        H  0.01258092  0.33179622  0.59548860     0.35600
C439        C  0.95600999  0.34417038  0.49167236    -0.26100
C440        C  0.95490722  0.31624559  0.46735497    -0.14200
C441        C  0.95562341  0.32317082  0.43250940     0.36400
C442        C  0.96273745  0.35683349  0.42303852    -0.25600
C443        C  0.97350101  0.38241316  0.44817497    -0.14800
C444        C  0.96629659  0.37709265  0.48251507     0.37500
N445        N  0.97220612  0.40370147  0.50884346    -0.89100
H446        H  0.95370643  0.33939209  0.51843104     0.18600
H447        H  0.96721570  0.36069647  0.39636077     0.18600
N448        N  0.95335741  0.29536004  0.40700772    -0.88100
H449        H  0.95677728  0.42434672  0.50303140     0.36000
H450        H  0.99721679  0.41217178  0.50838179     0.41100
H451        H  0.93372478  0.30051270  0.38942973     0.40700
H452        H  0.97580796  0.29502526  0.39399942     0.35600
C453        C  0.16768511  0.07663742  0.55852667    -0.26100
C454        C  0.18635996  0.08731141  0.53070836    -0.14200
C455        C  0.16905439  0.10770663  0.50667094     0.36400
C456        C  0.13373800  0.10995958  0.50639035    -0.25600
C457        C  0.11482756  0.09433538  0.53098180    -0.14800
C458        C  0.13220319  0.07925720  0.55845175     0.37500
N459        N  0.11359736  0.06533244  0.58542817    -0.89100
H460        H  0.17991544  0.06160753  0.57787072     0.18600
H461        H  0.12100324  0.12368929  0.48636963     0.18600
N462        N  0.18679129  0.12357444  0.48038896    -0.88100
H463        H  0.12996105  0.05494603  0.60372509     0.36000
H464        H  0.09860945  0.04486796  0.57461185     0.41100
H465        H  0.18218917  0.15002622  0.48215284     0.40700
H466        H  0.17692151  0.11366047  0.45660916     0.35600
C467        C  0.15500230  0.96853902  0.48651552    -0.26100
C468        C  0.17980912  0.98175402  0.46569043    -0.14200
C469        C  0.17003712  0.98741882  0.43136062     0.36400
C470        C  0.13618437  0.98257810  0.41964031    -0.25600
C471        C  0.11037355  0.97325808  0.44160818    -0.14800
C472        C  0.12056036  0.96683030  0.47581692     0.37500
N473        N  0.09615108  0.96166162  0.50094810    -0.89100
H474        H  0.16144956  0.96576515  0.51346930     0.18600
H475        H  0.13021943  0.98859287  0.39345255     0.18600
N476        N  0.19345448  0.00143042  0.40867677    -0.88100
H477        H  0.09840303  0.98238882  0.51910438     0.36000
H478        H  0.10231762  0.93942933  0.51362934     0.41100
H479        H  0.21415169  0.98518168  0.40767024     0.40700
H480        H  0.20189262  0.02564581  0.41875500     0.35600
C481        C  0.30640110  0.03370554  0.55930111    -0.26100
C482        C  0.28688743  0.00706981  0.54175730    -0.14200
C483        C  0.30343676  0.97639172  0.53179988     0.36400
C484        C  0.33866422  0.97394013  0.53764710    -0.25600
C485        C  0.35810734  0.00111684  0.55397247    -0.14800
C486        C  0.34148472  0.03103584  0.56529369     0.37500
N487        N  0.35994981  0.05845205  0.58391363    -0.89100
H488        H  0.29475015  0.05744425  0.56763277     0.18600
H489        H  0.35099854  0.95019156  0.53027445     0.18600
N490        N  0.28435462  0.94750530  0.51626698    -0.88100
H491        H  0.35704379  0.08089100  0.57052897     0.36000
H492        H  0.34932759  0.06244597  0.60775519     0.41100
H493        H  0.26777724  0.93917377  0.53431632     0.40700
H494        H  0.30010709  0.92689548  0.51059091     0.35600
C495        C  0.31059639  0.02257209  0.45279783    -0.26100
C496        C  0.29365258  0.04843390  0.47179075    -0.14200
C497        C  0.31396006  0.07510562  0.48895431     0.36400
C498        C  0.34892677  0.07612149  0.48529187    -0.25600
C499        C  0.36492421  0.05284702  0.46299922    -0.14800
C500        C  0.34578177  0.02462592  0.44826120     0.37500
N501        N  0.36165147  0.99872015  0.42758478    -0.89100
H502        H  0.29638133  0.00104112  0.44043392     0.18600
H503        H  0.36333841  0.09774187  0.49738587     0.18600
N504        N  0.29967734  0.10188040  0.50993867    -0.88100
H505        H  0.35773017  0.97499283  0.43842834     0.36000
H506        H  0.34969873  0.99760096  0.40319253     0.41100
H507        H  0.31169520  0.10253504  0.53425032     0.40700
H508        H  0.30480920  0.12543963  0.49923721     0.35600
C509        C  0.50114314  0.04959185  0.17470452    -0.26100
C510        C  0.52507521  0.03156874  0.19441505    -0.14200
C511        C  0.55248341  0.01688030  0.17674152     0.36400
C512        C  0.55644183  0.02292743  0.14209039    -0.25600
C513        C  0.53447460  0.04389723  0.12382144    -0.14800
C514        C  0.50527913  0.05522566  0.13973274     0.37500
N515        N  0.48025184  0.07353203  0.12096765    -0.89100
H516        H  0.47927850  0.06034476  0.18645376     0.18600
H517        H  0.57861927  0.01312029  0.12995509     0.18600
N518        N  0.57680328  0.99573774  0.19324578    -0.88100
H519        H  0.47713676  0.09739624  0.13389390     0.36000
H520        H  0.45749555  0.05963650  0.12128344     0.41100
H521        H  0.57716754  0.97183797  0.17976205     0.40700
H522        H  0.60056269  0.00747292  0.19190429     0.35600
C523        C  0.44055981  0.96390456  0.14343858    -0.26100
C524        C  0.46732207  0.95009756  0.12509884    -0.14200
C525        C  0.49750627  0.94251655  0.14328800     0.36400
C526        C  0.50038077  0.94866375  0.17891829    -0.25600
C527        C  0.47398664  0.96312852  0.19735418    -0.14800
C528        C  0.44382701  0.97089474  0.17917753     0.37500
N529        N  0.41636958  0.98569027  0.19694450    -0.89100
H530        H  0.41692318  0.96913107  0.12994582     0.18600
H531        H  0.52413985  0.94325162  0.19197431     0.18600
N532        N  0.52519982  0.92774155  0.12587293    -0.88100
H533        H  0.41064026  0.00910992  0.18616073     0.36000
H534        H  0.39539674  0.96917494  0.19266288     0.41100
H535        H  0.53100988  0.90440952  0.13676637     0.40700
H536        H  0.54606061  0.94440437  0.13002403     0.35600
C537        C  0.47172783  0.07052736  0.32056872    -0.26100
C538        C  0.45638774  0.04214903  0.30186876    -0.14200
C539        C  0.43089305  0.02353465  0.31734728     0.36400
C540        C  0.42378373  0.03100844  0.35194093    -0.25600
C541        C  0.44190732  0.05692072  0.37166442    -0.14800
C542        C  0.46579775  0.07721123  0.35531040     0.37500
N543        N  0.48615207  0.10329207  0.37395002    -0.89100
H544        H  0.49228989  0.08429969  0.30961659     0.18600
H545        H  0.40407169  0.01648386  0.36340079     0.18600
N546        N  0.41423890  0.99502912  0.29865156    -0.88100
H547        H  0.47093482  0.12304322  0.38303997     0.36000
H548        H  0.49821366  0.09217641  0.39488600     0.41100
H549        H  0.41880295  0.97279683  0.31200338     0.40700
H550        H  0.38832704  0.99938120  0.29817491     0.35600
C551        C  0.53785976  0.94000670  0.32095032    -0.26100
C552        C  0.55079391  0.96888882  0.30477006    -0.14200
C553        C  0.57321643  0.99145846  0.32479999     0.36400
C554        C  0.57648752  0.98879644  0.36034533    -0.25600
C555        C  0.55925794  0.96312479  0.37688557    -0.14800
C556        C  0.54149194  0.93715024  0.35656161     0.37500
N557        N  0.52454893  0.90911645  0.37143479    -0.89100
H558        H  0.52085997  0.92184721  0.30684315     0.18600
H559        H  0.59165305  0.00808139  0.37518040     0.18600
N560        N  0.58985310  0.01967061  0.30996442    -0.88100
H561        H  0.50858098  0.91914000  0.38984969     0.36000
H562        H  0.54246063  0.89383615  0.38336662     0.41100
H563        H  0.61576982  0.01765239  0.31518463     0.40700
H564        H  0.58193238  0.04265345  0.32191338     0.35600
C565        C  0.49549893  0.18459511  0.04775228    -0.26100
C566        C  0.51877852  0.20751273  0.03417856    -0.14200
C567        C  0.55235369  0.19739581  0.03239815     0.36400
C568        C  0.56128782  0.16366236  0.03990111    -0.25600
C569        C  0.53750248  0.13943713  0.05069703    -0.14800
C570        C  0.50434510  0.15070891  0.05540927     0.37500
N571        N  0.47925895  0.12787003  0.06718638    -0.89100
H572        H  0.46921366  0.19161614  0.04834749     0.18600
H573        H  0.58709509  0.15624833  0.03634287     0.18600
N574        N  0.57687222  0.22046991  0.01984365    -0.88100
H575        H  0.45969346  0.12531087  0.04840258     0.36000
H576        H  0.46950715  0.13947607  0.08924182     0.41100
H577        H  0.58669216  0.20876466  0.99786997     0.40700
H578        H  0.59647284  0.22388695  0.03850294     0.35600
C579        C  0.43694265  0.18630178  0.92864658    -0.26100
C580        C  0.46763275  0.20307158  0.92204678    -0.14200
C581        C  0.49268680  0.18255208  0.90653894     0.36400
C582        C  0.48990252  0.14642512  0.90579373    -0.25600
C583        C  0.46155613  0.12988906  0.91799092    -0.14800
C584        C  0.43409946  0.15010487  0.92757617     0.37500
N585        N  0.40380410  0.13391916  0.93788962    -0.89100
H586        H  0.41677105  0.20088553  0.93971593     0.18600
H587        H  0.51032492  0.13128183  0.89597677     0.18600
N588        N  0.52280130  0.19808686  0.89500304    -0.88100
H589        H  0.38383042  0.14196228  0.92208219     0.36000
H590        H  0.39962035  0.14274155  0.96301830     0.41100
H591        H  0.54339223  0.18867174  0.90903103     0.40700
H592        H  0.52509743  0.19030068  0.86923918     0.35600
C593        C  0.52964057  0.33953268  0.98508428    -0.26100
C594        C  0.53605576  0.31128706  0.96231644    -0.14200
C595        C  0.55212145  0.31854774  0.93192017     0.36400
C596        C  0.55490755  0.35274145  0.92204154    -0.25600
C597        C  0.54343914  0.38083671  0.94254310    -0.14800
C598        C  0.53338151  0.37384172  0.97561694     0.37500
N599        N  0.52678988  0.40130699  0.99989228    -0.89100
H600        H  0.52009112  0.33558574  0.00999860     0.18600
H601        H  0.56667082  0.35698024  0.89815109     0.18600
N602        N  0.56636090  0.29148838  0.91122451    -0.88100
H603        H  0.54294706  0.39895421  0.02142818     0.36000
H604        H  0.50212711  0.39858345  0.00753692     0.41100
H605        H  0.59216902  0.29674122  0.90997291     0.40700
H606        H  0.55557255  0.29212375  0.88638601     0.35600
C607        C  0.44893780  0.33355115  0.97448880    -0.26100
C608        C  0.45427545  0.31083270  0.00101200    -0.14200
C609        C  0.45267071  0.32362440  0.03513167     0.36400
C610        C  0.44450671  0.35827402  0.04221291    -0.25600
C611        C  0.43820886  0.38095165  0.01568433    -0.14800
C612        C  0.44149378  0.36839401  0.98147990     0.37500
N613        N  0.43767231  0.39082150  0.95367055    -0.89100
H614        H  0.45195048  0.32455534  0.94813578     0.18600
H615        H  0.44260531  0.36735493  0.06869973     0.18600
N616        N  0.45909874  0.30135827  0.06267948    -0.88100
H617        H  0.41915757  0.38019571  0.93627322     0.36000
H618        H  0.46040428  0.39133917  0.94118773     0.41100
H619        H  0.43776956  0.30093704  0.07739410     0.40700
H620        H  0.47916923  0.31203331  0.07811645     0.35600
C621        C  0.07004312  0.45425502  0.14654053    -0.26100
C622        C  0.05375681  0.47079733  0.11908706    -0.14200
C623        C  0.03838186  0.50259462  0.12713254     0.55600
C624        C  0.03534863  0.51421477  0.16184576    -0.25600
C625        C  0.04774185  0.49482572  0.18905181    -0.14800
C626        C  0.06700084  0.46575055  0.18089072     0.37500
N627        N  0.08192844  0.44647282  0.20774790    -0.89100
H628        H  0.08458820  0.43134339  0.14169546     0.18600
H629        H  0.02076484  0.53694130  0.16748451     0.18600
N630        N  0.02487726  0.52275411  0.10041729    -0.88100
H631        H  0.10789955  0.44571998  0.20446097     0.36000
H632        H  0.07240711  0.42118672  0.20494847     0.41100
H633        H  0.03695112  0.54693198  0.10264626     0.40700
H634        H  0.99931161  0.52643670  0.10416187     0.35600
C635        C  0.96699916  0.43744205  0.16659074    -0.26100
C636        C  0.96122229  0.47131459  0.17871920    -0.14200
C637        C  0.95051455  0.49522703  0.15434876     0.36400
C638        C  0.94607420  0.48469761  0.11938055    -0.25600
C639        C  0.95338183  0.45113068  0.10710624    -0.14800
C640        C  0.96504733  0.42763771  0.13154503     0.37500
N641        N  0.97632605  0.39399815  0.12145394    -0.89100
H642        H  0.97464541  0.41824357  0.18434238     0.18600
H643        H  0.93749696  0.50349296  0.10160332     0.18600
N644        N  0.94512053  0.53059905  0.16429202    -0.88100
H645        H  0.96179259  0.37585093  0.13346172     0.36000
H646        H  0.00135350  0.39183356  0.13040444     0.41100
H647        H  0.92020363  0.53634499  0.15733231     0.40700
H648        H  0.96093372  0.54599205  0.15051555     0.35600
C649        C  0.04733202  0.44622778  0.30849276    -0.26100
C650        C  0.01553347  0.43936465  0.29200731    -0.14200
C651        C  0.99017576  0.42401663  0.31077789     0.36400
C652        C  0.99523141  0.42072673  0.34610276    -0.25600
C653        C  0.02545648  0.43195082  0.36338737    -0.14800
C654        C  0.05229470  0.44340411  0.34399227     0.37500
N655        N  0.08407225  0.45441343  0.35999098    -0.89100
H656        H  0.06684445  0.45870950  0.29473249     0.18600
H657        H  0.97509924  0.40995489  0.36026502     0.18600
N658        N  0.95781612  0.41477651  0.29503369    -0.88100
H659        H  0.09489823  0.43364587  0.37207728     0.36000
H660        H  0.07971039  0.47387415  0.37864622     0.41100
H661        H  0.96150663  0.39743885  0.27426822     0.40700
H662        H  0.94668080  0.43680875  0.28564898     0.35600
C663        C  0.00811846  0.56173425  0.31351837    -0.26100
C664        C  0.98341101  0.55563270  0.28638234    -0.14200
C665        C  0.95002161  0.56352811  0.29411598     0.36400
C666        C  0.94099206  0.56717464  0.32846747    -0.25600
C667        C  0.96463393  0.56348019  0.35619628    -0.14800
C668        C  0.99897418  0.56302702  0.34819800     0.37500
N669        N  0.02465589  0.56138134  0.37482139    -0.89100
H670        H  0.03437518  0.55754235  0.30843154     0.18600
H671        H  0.91485426  0.57227657  0.33286572     0.18600
N672        N  0.92490122  0.56755554  0.26736705    -0.88100
H673        H  0.04137694  0.58218258  0.37289312     0.36000
H674        H  0.03791212  0.53862120  0.37059565     0.41100
H675        H  0.90524237  0.54990672  0.27049559     0.40700
H676        H  0.91529608  0.59237696  0.27035305     0.35600
C677        C  0.14450272  0.43673788  0.01550577    -0.26100
C678        C  0.12636915  0.45707840  0.03871178    -0.14200
C679        C  0.14413068  0.48383926  0.05820549     0.36400
C680        C  0.17857025  0.48979516  0.05362047    -0.25600
C681        C  0.19599443  0.47230894  0.02735507    -0.14800
C682        C  0.17830126  0.44464632  0.00875915     0.37500
N683        N  0.19349338  0.42555662  0.98146974    -0.89100
H684        H  0.13173012  0.41546829  0.00100053     0.18600
H685        H  0.19054505  0.51179679  0.06765844     0.18600
N686        N  0.12797895  0.50612259  0.08244698    -0.88100
H687        H  0.19308059  0.39948722  0.98697160     0.36000
H688        H  0.17883927  0.42833760  0.95893031     0.41100
H689        H  0.10873040  0.51907370  0.06964496     0.40700
H690        H  0.11784285  0.49118622  0.10105776     0.35600
C691        C  0.15549384  0.54708348  0.91900195    -0.26100
C692        C  0.13278997  0.55258211  0.94556333    -0.14200
C693        C  0.14306887  0.57590253  0.97286036     0.36400
C694        C  0.17737293  0.58666097  0.97668910    -0.25600
C695        C  0.20162595  0.56899664  0.95725902    -0.14800
C696        C  0.19010746  0.55498011  0.92489813     0.37500
N697        N  0.21392899  0.54152144  0.90151921    -0.89100
H698        H  0.14779005  0.53110959  0.89642303     0.18600
H699        H  0.18567843  0.60046991  0.00041182     0.18600
N700        N  0.12006335  0.58506269  0.99879769    -0.88100
H701        H  0.20863309  0.55180551  0.87772737     0.36000
H702        H  0.21021009  0.51478019  0.89864425     0.41100
H703        H  0.11892325  0.61196301  0.00079433     0.40700
H704        H  0.12991169  0.57673919  0.02214253     0.35600
C705        C  0.32367141  0.51994562  0.05182183    -0.26100
C706        C  0.30609008  0.54425750  0.03249541    -0.14200
C707        C  0.32407310  0.57387290  0.02337967     0.36400
C708        C  0.35900373  0.57738640  0.03133224    -0.25600
C709        C  0.37630295  0.55314974  0.05066521    -0.14800
C710        C  0.35775213  0.52506894  0.06234950     0.37500
N711        N  0.37260587  0.50214873  0.08610781    -0.89100
H712        H  0.31090274  0.49689341  0.05936188     0.18600
H713        H  0.37218257  0.60044046  0.02431180     0.18600
N714        N  0.30674664  0.60121008  0.00727118    -0.88100
H715        H  0.37740253  0.51570084  0.10959336     0.36000
H716        H  0.39575494  0.49416374  0.07713416     0.41100
H717        H  0.31824812  0.60580258  0.98436853     0.40700
H718        H  0.30994336  0.62350333  0.02329471     0.35600
C719        C  0.30857741  0.45305186  0.95522634    -0.26100
C720        C  0.30175088  0.48851633  0.95758602    -0.14200
C721        C  0.33036974  0.51118255  0.95940467     0.36400
C722        C  0.36160306  0.49944303  0.97259295    -0.25600
C723        C  0.36560110  0.46465814  0.97913888    -0.14800
C724        C  0.34000607  0.44092035  0.96627801     0.37500
N725        N  0.34440261  0.40436406  0.96624675    -0.89100
H726        H  0.28869596  0.43432657  0.94817450     0.18600
H727        H  0.38197540  0.51769398  0.97957421     0.18600
N728        N  0.32793950  0.54556110  0.94792296    -0.88100
H729        H  0.34808021  0.39668667  0.99127619     0.36000
H730        H  0.36579107  0.39839310  0.95272508     0.41100
H731        H  0.32122913  0.54360034  0.92172330     0.40700
H732        H  0.35141483  0.55821932  0.95039600     0.35600
C733        C  0.04063733  0.84071397  0.45325118    -0.26100
C734        C  0.01267150  0.82287846  0.43683605    -0.14200
C735        C  0.99295416  0.84113945  0.41280251     0.36400
C736        C  0.99925803  0.87655167  0.40880956    -0.25600
C737        C  0.02487611  0.89479804  0.42837712    -0.14800
C738        C  0.04646814  0.87602731  0.44971314     0.37500
N739        N  0.07444123  0.89263939  0.46836846    -0.89100
H740        H  0.05628135  0.82836604  0.47218136     0.18600
H741        H  0.98349583  0.89006094  0.39075696     0.18600
N742        N  0.96546955  0.82430357  0.39341287    -0.88100
H743        H  0.09644679  0.88045455  0.46100054     0.36000
H744        H  0.07164531  0.88889148  0.49438719     0.41100
H745        H  0.96977465  0.82628833  0.36739569     0.40700
H746        H  0.94338187  0.83741786  0.39868070     0.35600
C747        C  0.90303913  0.86063125  0.51604382    -0.26100
C748        C  0.92947226  0.88557964  0.51884295    -0.14200
C749        C  0.95835074  0.87809947  0.53938529     0.36400
C750        C  0.96266465  0.84415580  0.54982611    -0.25600
C751        C  0.94259969  0.81731383  0.53326686    -0.14800
C752        C  0.90956203  0.82609450  0.52282137     0.37500
N753        N  0.88492606  0.80000577  0.51171602    -0.89100
H754        H  0.87951824  0.86641815  0.50259843     0.18600
H755        H  0.98698993  0.83784440  0.56127977     0.18600
N756        N  0.98547512  0.90258728  0.54578623    -0.88100
H757        H  0.86389573  0.80382564  0.52651607     0.36000
H758        H  0.89399795  0.77568710  0.51718669     0.41100
H759        H  0.97613782  0.92411468  0.55910384     0.40700
H760        H  0.99393599  0.91012322  0.52230385     0.35600
C761        C  0.97217832  0.69342186  0.43108615    -0.26100
C762        C  0.94999598  0.70990392  0.45344001    -0.14200
C763        C  0.92755419  0.68911654  0.47077772     0.36400
C764        C  0.92777694  0.65294256  0.46553759    -0.25600
C765        C  0.95020520  0.63655904  0.44330199    -0.14800
C766        C  0.97285342  0.65754360  0.42616063     0.37500
N767        N  0.99659175  0.64358849  0.40298357    -0.89100
H768        H  0.99035911  0.70838508  0.41800315     0.18600
H769        H  0.90986603  0.63754551  0.47861863     0.18600
N770        N  0.90407693  0.70458557  0.49337760    -0.88100
H771        H  0.98348771  0.63000137  0.38272637     0.36000
H772        H  0.01259535  0.62717686  0.41612069     0.41100
H773        H  0.90826063  0.69471032  0.51756110     0.40700
H774        H  0.87975859  0.69704091  0.48438457     0.35600
C775        C  0.00447272  0.70577867  0.54324689    -0.26100
C776        C  0.01692062  0.71839084  0.51310909    -0.14200
C777        C  0.03733911  0.69646157  0.49291193     0.36400
C778        C  0.04470299  0.66314528  0.50333207    -0.25600
C779        C  0.03183010  0.65073121  0.53321425    -0.14800
C780        C  0.01168281  0.67243293  0.55334820     0.37500
N781        N  0.00008098  0.66130766  0.58522751    -0.89100
H782        H  0.98924009  0.72205799  0.55944915     0.18600
H783        H  0.06159558  0.64727284  0.48857814     0.18600
N784        N  0.05077142  0.70751667  0.46182208    -0.88100
H785        H  0.97380291  0.66268703  0.58443472     0.36000
H786        H  0.00965826  0.67854455  0.60481568     0.41100
H787        H  0.04347127  0.68952801  0.44201249     0.40700
H788        H  0.07705720  0.70717396  0.46461789     0.35600
C789        C  0.81190210  0.02903054  0.55773859    -0.26100
C790        C  0.79819149  0.04352641  0.52800927    -0.14200
C791        C  0.82058189  0.06030449  0.50686835     0.36400
C792        C  0.85502730  0.06467548  0.51723044    -0.25600
C793        C  0.86783850  0.05196476  0.54817728    -0.14800
C794        C  0.84624519  0.03196114  0.56714477     0.37500
N795        N  0.85901617  0.01525244  0.59676397    -0.89100
H796        H  0.79602010  0.01506837  0.57418125     0.18600
H797        H  0.87123783  0.07982867  0.50201146     0.18600
N798        N  0.80831663  0.07434096  0.47566071    -0.88100
H799        H  0.84559724  0.02400314  0.61781938     0.36000
H800        H  0.85412370  0.98878613  0.59275889     0.41100
H801        H  0.82156877  0.06305253  0.45560536     0.40700
H802        H  0.81385486  0.10079912  0.47707187     0.35600
C803        C  0.80025265  0.96586176  0.45444726    -0.26100
C804        C  0.78725176  0.96194940  0.48699418    -0.14200
C805        C  0.80941722  0.94925726  0.51295772     0.36400
C806        C  0.84376755  0.94502102  0.50688574    -0.25600
C807        C  0.85691895  0.95119959  0.47496766    -0.14800
C808        C  0.83447187  0.96061138  0.44825610     0.37500
N809        N  0.84646910  0.96564926  0.41484423    -0.89100
H810        H  0.78393191  0.97448904  0.43377139     0.18600
H811        H  0.86014433  0.93562448  0.52713535     0.18600
N812        N  0.79824776  0.93942426  0.54542835    -0.88100
H813        H  0.84118553  0.99089822  0.40855835     0.36000
H814        H  0.83289026  0.94887422  0.39734915     0.41100
H815        H  0.78700386  0.96016196  0.55806399     0.40700
H816        H  0.78088193  0.91901482  0.54126954     0.35600
C817        C  0.63385423  0.04388086  0.44883160    -0.26100
C818        C  0.62657783  0.00935639  0.43837613    -0.14200
C819        C  0.65195922  0.99129336  0.42031281     0.36400
C820        C  0.68553073  0.00373001  0.42280279    -0.25600
C821        C  0.69394495  0.03270363  0.44429322    -0.14800
C822        C  0.66762319  0.05642648  0.44955658     0.37500
N823        N  0.67580131  0.09039983  0.46360998    -0.89100
H824        H  0.61446232  0.05977897  0.45969194     0.18600
H825        H  0.70531106  0.98692884  0.41417989     0.18600
N826        N  0.64425570  0.95962933  0.40096499    -0.88100
H827        H  0.66596069  0.09307082  0.48794220     0.36000
H828        H  0.66364739  0.10789573  0.44801661     0.41100
H829        H  0.65075847  0.96276580  0.37567613     0.40700
H830        H  0.65930483  0.94034461  0.41091870     0.35600
C831        C  0.62742978  0.97263984  0.56431873    -0.26100
C832        C  0.61413455  0.00486942  0.57367169    -0.14200
C833        C  0.63622862  0.03377083  0.57646675     0.36400
C834        C  0.67067718  0.02986906  0.57146330    -0.25600
C835        C  0.68394625  0.99838894  0.55879103    -0.14800
C836        C  0.66158753  0.96928869  0.55608123     0.37500
N837        N  0.67287012  0.93648611  0.54341609    -0.89100
H838        H  0.61108397  0.94995302  0.56261489     0.18600
H839        H  0.68594074  0.05326942  0.57227898     0.18600
N840        N  0.62346565  0.06783479  0.58188126    -0.88100
H841        H  0.65807538  0.92892100  0.52146410     0.36000
H842        H  0.66882611  0.91862260  0.56200793     0.41100
H843        H  0.62930645  0.08207566  0.56085612     0.40700
H844        H  0.63602385  0.07943822  0.60365520     0.35600
C845        C  0.53291640  0.00063448  0.82645881    -0.26100
C846        C  0.52775786  0.02250173  0.79923047    -0.14200
C847        C  0.52382011  0.05789813  0.80677896     0.36400
C848        C  0.51773851  0.06950881  0.84040173    -0.25600
C849        C  0.51375013  0.04567901  0.86592621    -0.14800
C850        C  0.52570859  0.01210670  0.86009777     0.37500
N851        N  0.52772919  0.98913533  0.88766937    -0.89100
H852        H  0.53755593  0.97355627  0.82097387     0.18600
H853        H  0.50967285  0.09580491  0.84474538     0.18600
N854        N  0.52161613  0.08126942  0.77960586    -0.88100
H855        H  0.53828626  0.96586581  0.87957412     0.36000
H856        H  0.50317903  0.98365459  0.89453066     0.41100
H857        H  0.53979640  0.10079018  0.78490410     0.40700
H858        H  0.49789892  0.09257963  0.77969990     0.35600
C859        C  0.46882068  0.94442091  0.81458928    -0.26100
C860        C  0.44954800  0.96809722  0.79665504    -0.14200
C861        C  0.42376216  0.98524088  0.81392107     0.36400
C862        C  0.41880958  0.97941248  0.84890388    -0.25600
C863        C  0.43924246  0.95657956  0.86727402    -0.14800
C864        C  0.46349708  0.93814387  0.84891364     0.37500
N865        N  0.48171252  0.91126581  0.86423729    -0.89100
H866        H  0.48871637  0.93065214  0.80202627     0.18600
H867        H  0.39842669  0.99225301  0.86158034     0.18600
N868        N  0.40182388  0.00756741  0.79569391    -0.88100
H869        H  0.50739260  0.91634124  0.86194657     0.36000
H870        H  0.47569870  0.88820484  0.85013813     0.41100
H871        H  0.40275214  0.03194749  0.80827183     0.40700
H872        H  0.37720447  0.99785665  0.79668452     0.35600
C873        C  0.47700633  0.06183649  0.67403732    -0.26100
C874        C  0.45768274  0.04739963  0.69945334    -0.14200
C875        C  0.42323337  0.04170612  0.69144948     0.36400
C876        C  0.41203141  0.03822373  0.65681487    -0.25600
C877        C  0.43539235  0.04001316  0.63071992    -0.14800
C878        C  0.46651013  0.05673240  0.63907990     0.37500
N879        N  0.48853888  0.06478620  0.61238305    -0.89100
H880        H  0.50304632  0.06917711  0.68044603     0.18600
H881        H  0.38691074  0.02775705  0.65065268     0.18600
N882        N  0.40125623  0.03278598  0.71777737    -0.88100
H883        H  0.51057787  0.07697213  0.62291336     0.36000
H884        H  0.47642801  0.08288463  0.59752288     0.41100
H885        H  0.38082803  0.04941504  0.71697759     0.40700
H886        H  0.39203662  0.00767748  0.71217049     0.35600
C887        C  0.55007059  0.94005752  0.68549605    -0.26100
C888        C  0.51565695  0.93785125  0.69219898    -0.14200
C889        C  0.49360583  0.92762886  0.66371400     0.36400
C890        C  0.50265037  0.93672321  0.63067373    -0.25600
C891        C  0.53459978  0.95122836  0.62614135    -0.14800
C892        C  0.55978462  0.94686863  0.65232087     0.37500
N893        N  0.59422528  0.95564508  0.64684184    -0.89100
H894        H  0.56890629  0.94274269  0.70630128     0.18600
H895        H  0.48350328  0.93727054  0.61013335     0.18600
N896        N  0.45993260  0.91593567  0.66930138    -0.88100
H897        H  0.60888553  0.93448593  0.65279264     0.36000
H898        H  0.60165374  0.97621441  0.66398390     0.41100
H899        H  0.46184813  0.89233495  0.68091839     0.40700
H900        H  0.44675264  0.91070100  0.64583935     0.35600
C901        C  0.07988624  0.46889463  0.84735787    -0.26100
C902        C  0.07975618  0.49929702  0.86834913    -0.14200
C903        C  0.07722693  0.53100795  0.85258476     0.36400
C904        C  0.07321702  0.53164347  0.81676518    -0.25600
C905        C  0.06885694  0.50104250  0.79573149    -0.14800
C906        C  0.07400605  0.46932605  0.81167137     0.37500
N907        N  0.06997319  0.43710899  0.79235011    -0.89100
H908        H  0.08239119  0.44420670  0.85884845     0.18600
H909        H  0.06881184  0.55643617  0.80612574     0.18600
N910        N  0.07750249  0.56281313  0.87279565    -0.88100
H911        H  0.05037378  0.42309522  0.80245334     0.36000
H912        H  0.09216727  0.42330314  0.79562363     0.41100
H913        H  0.09719522  0.57839341  0.86507582     0.40700
H914        H  0.05480778  0.57519819  0.86759023     0.35600
C915        C  0.94383458  0.48718278  0.80745034    -0.26100
C916        C  0.95113610  0.51032498  0.78181453    -0.14200
C917        C  0.94559972  0.54536875  0.78943542     0.36400
C918        C  0.94081526  0.55721878  0.82347983    -0.25600
C919        C  0.94185010  0.53472310  0.85106459    -0.14800
C920        C  0.94140105  0.49896999  0.84212100     0.37500
N921        N  0.94100793  0.47437548  0.86811603    -0.89100
H922        H  0.94730904  0.45985248  0.80203590     0.18600
H923        H  0.93810009  0.58464607  0.82785206     0.18600
N924        N  0.94928048  0.56963587  0.76344109    -0.88100
H925        H  0.92041979  0.45758773  0.86265959     0.36000
H926        H  0.96295363  0.45995986  0.86667410     0.41100
H927        H  0.92710153  0.58367582  0.76158130     0.40700
H928        H  0.96900643  0.58679044  0.77131808     0.35600
C929        C  0.04253582  0.43743100  0.67046341    -0.26100
C930        C  0.01827803  0.46268177  0.67660771    -0.14200
C931        C  0.00449591  0.47874241  0.64734767     0.36400
C932        C  0.02181107  0.47702520  0.61646304    -0.25600
C933        C  0.05089420  0.45735729  0.61304981    -0.14800
C934        C  0.05905196  0.43467884  0.63961814     0.37500
N935        N  0.08326667  0.40788855  0.63633647    -0.89100
H936        H  0.05031270  0.42065967  0.69052211     0.18600
H937        H  0.01291663  0.49184561  0.59529483     0.18600
N938        N  0.97328116  0.49667580  0.64861807    -0.88100
H939        H  0.10751793  0.41845240  0.63722398     0.36000
H940        H  0.07830452  0.39339445  0.61332277     0.41100
H941        H  0.95440494  0.47841446  0.65265433     0.40700
H942        H  0.96706741  0.50711912  0.62510433     0.35600
C943        C  0.00645613  0.57816862  0.63390925    -0.26100
C944        C  0.03692909  0.56817975  0.61948577    -0.14200
C945        C  0.05991122  0.54931354  0.63944026     0.36400
C946        C  0.05245587  0.54126244  0.67291364    -0.25600
C947        C  0.02219131  0.55120650  0.68773841    -0.14800
C948        C  0.99892950  0.56993348  0.66765677     0.37500
N949        N  0.96809381  0.58192402  0.68119501    -0.89100
H950        H  0.98922713  0.59400934  0.61961847     0.18600
H951        H  0.07026741  0.52611372  0.68725529     0.18600
N952        N  0.09156459  0.53936720  0.62578913    -0.88100
H953        H  0.97399291  0.59717420  0.70353308     0.36000
H954        H  0.95362574  0.56074666  0.68759004     0.41100
H955        H  0.08642249  0.52358829  0.60380376     0.40700
H956        H  0.10534223  0.52466275  0.64306486     0.35600
C957        C  0.54686078  0.84041346  0.01970880    -0.26100
C958        C  0.53845563  0.81303295  0.04009814    -0.14200
C959        C  0.52294377  0.82055874  0.07105890     0.36400
C960        C  0.50897822  0.85305333  0.07700986    -0.25600
C961        C  0.51057053  0.87820840  0.05236061    -0.14800
C962        C  0.53341119  0.87343214  0.02607964     0.37500
N963        N  0.54181941  0.90138848  0.00531327    -0.89100
H964        H  0.56031344  0.83518094  0.99656875     0.18600
H965        H  0.49351887  0.85718426  0.09894754     0.18600
N966        N  0.51785021  0.79391366  0.09443044    -0.88100
H967        H  0.55958378  0.89339814  0.98781521     0.36000
H968        H  0.55459816  0.91987043  0.02159871     0.41100
H969        H  0.49194140  0.79065573  0.09713694     0.40700
H970        H  0.52872170  0.80234015  0.11829016     0.35600
C971        C  0.49543717  0.83108661  0.95032332    -0.26100
C972        C  0.47572758  0.80816378  0.96810179    -0.14200
C973        C  0.44500976  0.82016881  0.98068228     0.36400
C974        C  0.43411049  0.85369549  0.97364243    -0.25600
C975        C  0.45302570  0.87612991  0.95423588    -0.14800
C976        C  0.48464704  0.86460392  0.94354270     0.37500
N977        N  0.50569313  0.88603063  0.92458719    -0.89100
H978        H  0.51985529  0.82315223  0.94185560     0.18600
H979        H  0.40998392  0.86202869  0.98256642     0.18600
N980        N  0.42463348  0.79813581  0.00017156    -0.88100
H981        H  0.52818426  0.89094580  0.93878557     0.36000
H982        H  0.51203065  0.87154642  0.90261167     0.41100
H983        H  0.40293249  0.81075866  0.00774981     0.40700
H984        H  0.41668968  0.77695045  0.98411346     0.35600
C985        C  0.48838508  0.69223371  0.06757624    -0.26100
C986        C  0.47350500  0.70443825  0.03746088    -0.14200
C987        C  0.44988812  0.68300923  0.01811517     0.36400
C988        C  0.44333156  0.64925354  0.02774714    -0.25600
C989        C  0.46001879  0.63622766  0.05660239    -0.14800
C990        C  0.48229871  0.65831805  0.07695484     0.37500
N991        N  0.49998360  0.64586474  0.10642131    -0.89100
H992        H  0.50777272  0.70772808  0.08174597     0.18600
H993        H  0.42532900  0.63313699  0.01238413     0.18600
N994        N  0.43495003  0.69454575  0.98679162    -0.88100
H995        H  0.52583358  0.64827473  0.10287180     0.36000
H996        H  0.49432695  0.66176000  0.12770139     0.41100
H997        H  0.40876964  0.69304812  0.98832891     0.40700
H998        H  0.44175979  0.67758119  0.96674581     0.35600
C999        C  0.54083535  0.68189563  0.93716931    -0.26100
C1000       C  0.55944500  0.70911011  0.95540020    -0.14200
C1001       C  0.59056136  0.69946265  0.97058590     0.36400
C1002       C  0.59406378  0.66549159  0.98100154    -0.25600
C1003       C  0.56750658  0.64108863  0.97478882    -0.14800
C1004       C  0.54291507  0.64798265  0.94907509     0.37500
N1005       N  0.51760924  0.62251811  0.93862838    -0.89100
H1006       H  0.51863661  0.68806050  0.92173590     0.18600
H1007       H  0.61541981  0.65945618  0.99770153     0.18600
N1008       N  0.61671625  0.72483859  0.97871316    -0.88100
H1009       H  0.51795152  0.61861764  0.91199627     0.36000
H1010       H  0.49414031  0.63241104  0.94459052     0.41100
H1011       H  0.62456739  0.73383860  0.95557677     0.40700
H1012       H  0.63767193  0.71356623  0.99048255     0.35600
C1013       C  0.82055969  0.48814719  0.04882365    -0.26100
C1014       C  0.79664159  0.46641765  0.02986427    -0.14200
C1015       C  0.80836471  0.43433037  0.01692558     0.36400
C1016       C  0.84300742  0.42797793  0.01687739    -0.25600
C1017       C  0.86733513  0.45178228  0.03162873    -0.14800
C1018       C  0.85551369  0.48205256  0.04828485     0.37500
N1019       N  0.87873316  0.50777115  0.06308470    -0.89100
H1020       H  0.81283032  0.51308197  0.05903726     0.18600
H1021       H  0.85056339  0.40428060  0.00397074     0.18600
N1022       N  0.78538506  0.40868324  0.00158351    -0.88100
H1023       H  0.87345144  0.51207584  0.08888121     0.36000
H1024       H  0.87453538  0.53066637  0.05070267     0.41100
H1025       H  0.79173540  0.40365720  0.97616733     0.40700
H1026       H  0.78856462  0.38604712  0.01465626     0.35600
C1027       C  0.81662118  0.52050363  0.91386002    -0.26100
C1028       C  0.79936732  0.54055968  0.93818190    -0.14200
C1029       C  0.81700547  0.56892515  0.95518379     0.36400
C1030       C  0.85181833  0.57332315  0.95152492    -0.25600
C1031       C  0.87002951  0.55022535  0.93078186    -0.14800
C1032       C  0.85168085  0.52443946  0.91070863     0.37500
N1033       N  0.86849153  0.50160863  0.88752771    -0.89100
H1034       H  0.80380316  0.49837685  0.90084228     0.18600
H1035       H  0.86498115  0.59427008  0.96613496     0.18600
N1036       N  0.80071631  0.59173322  0.97890859    -0.88100
H1037       H  0.86418321  0.47635535  0.89456953     0.36000
H1038       H  0.85764977  0.50401198  0.86292837     0.41100
H1039       H  0.77992354  0.60212060  0.96604448     0.40700
H1040       H  0.79205994  0.57763669  0.99891561     0.35600
C1041       C  0.66667422  0.46249570  0.97758093    -0.26100
C1042       C  0.68784978  0.47700385  0.95395392    -0.14200
C1043       C  0.67318421  0.48728695  0.92274454     0.36400
C1044       C  0.63818075  0.48336024  0.91590014    -0.25600
C1045       C  0.61695968  0.46799807  0.93909134    -0.14800
C1046       C  0.63183253  0.45755399  0.97036830     0.37500
N1047       N  0.61199321  0.44110667  0.99475276    -0.89100
H1048       H  0.67700735  0.45529504  0.00223986     0.18600
H1049       H  0.62778505  0.49176994  0.89173300     0.18600
N1050       N  0.69387348  0.50095262  0.89739182    -0.88100
H1051       H  0.61433499  0.45569219  0.01795943     0.36000
H1052       H  0.62190960  0.41676045  0.99863848     0.41100
H1053       H  0.68516343  0.52544633  0.89200272     0.40700
H1054       H  0.69070581  0.48512240  0.87501424     0.35600
C1055       C  0.65009616  0.58281713  0.99371147    -0.26100
C1056       C  0.63074815  0.56727355  0.01807336    -0.14200
C1057       C  0.64657435  0.54447899  0.04024490     0.36400
C1058       C  0.68046726  0.53551708  0.03605406    -0.25600
C1059       C  0.69978911  0.55017786  0.01082361    -0.14800
C1060       C  0.68443170  0.57526480  0.99058602     0.37500
N1061       N  0.70378130  0.59386102  0.96731029    -0.89100
H1062       H  0.63879068  0.60185598  0.97769844     0.18600
H1063       H  0.69112232  0.51607824  0.05196636     0.18600
N1064       N  0.62813789  0.53014420  0.06694325    -0.88100
H1065       H  0.70290784  0.62010636  0.97455457     0.36000
H1066       H  0.69217490  0.59028198  0.94283099     0.41100
H1067       H  0.64080216  0.53710373  0.09033216     0.40700
H1068       H  0.62845235  0.50327813  0.06352983     0.35600
loop_ 
_geom_bond_atom_site_label_1 
_geom_bond_atom_site_label_2 
_geom_bond_distance 
_geom_bond_site_symmetry_2 
_ccdc_geom_bond_type 
C1            C2   1.554       .  S
C1            C7   1.503   1_554  S
C1            C5   1.550   1_554  S
C1         C1014   1.536       .  S
C2            H9   1.085       .  S
C2            C3   1.385       .  D
C3            C4   1.547   1_554  S
C3         C1059   1.511       .  S
C4            C8   1.550       .  S
C4            C6   1.549       .  S
C4           H10   1.103       .  S
C5           H11   1.083       .  S
C5            C6   1.381       .  D
C6         C1042   1.503       .  S
C7           H12   1.092       .  S
C7            C8   1.331       .  D
C8         C1028   1.484       .  S
C13          C14   1.552       .  S
C13          C19   1.518       .  S
C13          C17   1.556   1_556  S
C13        C1000   1.546       .  S
C14          H21   1.085       .  S
C14          C15   1.385       .  D
C15          C16   1.543   1_556  S
C15         C972   1.509       .  S
C16          C20   1.533       .  S
C16          C18   1.543       .  S
C16          H22   1.108       .  S
C17          H23   1.082       .  S
C17          C18   1.377       .  D
C18         C958   1.482       .  S
C19          H24   1.084   1_556  S
C19          C20   1.331   1_556  D
C20         C986   1.474       .  S
C25          C26   1.539       .  S
C25          C31   1.490       .  S
C25          C29   1.551       .  S
C25         C905   1.534       .  S
C26          H33   1.082       .  S
C26          C27   1.391       .  D
C27          C28   1.565   1_455  S
C27         C930   1.527       .  S
C28          C32   1.569       .  S
C28          C30   1.552   1_655  S
C28          H34   1.101       .  S
C29          H35   1.086       .  S
C29          C30   1.380       .  D
C30         C947   1.514       .  S
C31          H36   1.091       .  S
C31          C32   1.336   1_455  D
C32         C916   1.496       .  S
C37          C38   1.558       .  S
C37          C43   1.519       .  S
C37          C41   1.540       .  S
C37         C888   1.543       .  S
C38          H45   1.083       .  S
C38          C39   1.375   1_565  D
C39          C40   1.541       .  S
C39         C846   1.482       .  S
C40          C44   1.540       .  S
C40          C42   1.549   1_545  S
C40          H46   1.111       .  S
C41          H47   1.086       .  S
C41          C42   1.380       .  D
C42         C860   1.504       .  S
C43          H48   1.085       .  S
C43          C44   1.346   1_565  D
C44         C874   1.489       .  S
C49          C50   1.557   1_545  S
C49          C55   1.493       .  S
C49          C53   1.548       .  S
C49         C835   1.540   1_545  S
C50          H57   1.080       .  S
C50          C51   1.387       .  D
C51          C52   1.549   1_565  S
C51         C804   1.512       .  S
C52          C56   1.555       .  S
C52          C54   1.546       .  S
C52          H58   1.107       .  S
C53          H59   1.086       .  S
C53          C54   1.379       .  D
C54         C790   1.510       .  S
C55          H60   1.087       .  S
C55          C56   1.340       .  D
C56         C821   1.492       .  S
C61          C62   1.555   1_655  S
C61          C67   1.497       .  S
C61          C65   1.546       .  S
C61         C734   1.536   1_655  S
C62          H69   1.084       .  S
C62          C63   1.378       .  D
C63          C64   1.540   1_455  S
C63         C776   1.501       .  S
C64          C68   1.546       .  S
C64          C66   1.548       .  S
C64          H70   1.106       .  S
C65          H71   1.085       .  S
C65          C66   1.385       .  D
C66         C762   1.505       .  S
C67          H72   1.086       .  S
C67          C68   1.343       .  D
C68         C751   1.491       .  S
C73          C74   1.549   1_554  S
C73          C79   1.491   1_554  S
C73          C77   1.548       .  S
C73         C681   1.547       .  S
C74          H81   1.079       .  S
C74          C75   1.392       .  D
C75          C76   1.556       .  S
C75         C720   1.529       .  S
C76          C80   1.554       .  S
C76          C78   1.555   1_556  S
C76          H82   1.100       .  S
C77          H83   1.085       .  S
C77          C78   1.384       .  D
C78         C706   1.512       .  S
C79          H84   1.083       .  S
C79          C80   1.337       .  D
C80         C695   1.495       .  S
O85          V93   1.951   1_455  S
O85          C95   1.277       .  A
O86          V93   1.953   1_554  S
O86          C96   1.277       .  A
O87          V93   1.915   1_454  S
O87          C97   1.262       .  A
O88          V93   1.923       .  S
O88          C98   1.273       .  A
O89          V94   1.945       .  S
O89          C98   1.273       .  A
O90          V94   1.938   1_454  S
O90          C97   1.278       .  A
O91          V94   1.895   1_554  S
O91          C96   1.264       .  A
O92          V94   1.889   1_455  S
O92          C95   1.265       .  A
V93          V94   2.080       .  T
C95         N125   1.467       .  S
C96         N118   1.462       .  S
C97         N369   1.463       .  S
C98          N99   1.473       .  S
N99         C103   1.371       .  A
N99         C100   1.372       .  A
C100        C101   1.390       .  A
C100        C919   1.526       .  S
C101        C102   1.362       .  A
C101        H104   1.080       .  S
C102        C103   1.381       .  A
C102        H105   1.082       .  S
C103       C1031   1.502       .  S
C106        C107   1.562   1_655  S
C106        C112   1.509       .  S
C106        C110   1.556       .  S
C106        C664   1.546       .  S
C107        H114   1.085       .  S
C107        C108   1.384       .  D
C108        C109   1.533       .  S
C108        C625   1.503       .  S
C109        C113   1.535       .  S
C109        C111   1.553   1_455  S
C109        H115   1.106       .  S
C110        H116   1.076       .  S
C110        C111   1.384       .  D
C111        C636   1.510       .  S
C112        H117   1.091       .  S
C112        C113   1.330   1_655  D
C113        C650   1.475       .  S
N118        C122   1.371       .  A
N118        C119   1.372       .  A
C119        C120   1.389       .  A
C119        C639   1.511       .  S
C120        C121   1.354       .  A
C120        H123   1.075       .  S
C121        C122   1.385       .  A
C121        H124   1.080       .  S
C122       C1017   1.510       .  S
N125        C129   1.364       .  A
N125        C126   1.366       .  A
C126        C127   1.380       .  A
C126        C902   1.492       .  S
C127        C128   1.367       .  A
C127        H130   1.082       .  S
C128        C129   1.395       .  A
C128        H131   1.077       .  S
C129        C692   1.508       .  S
O132        V140   1.917   1_556  S
O132        C142   1.265       .  A
O133        V140   1.924       .  S
O133        C143   1.271       .  A
O134        V140   1.915       .  S
O134        C144   1.270   1_554  A
O135        V140   1.907       .  S
O135        C145   1.271   1_554  A
O136        V141   1.935       .  S
O136        C145   1.271       .  A
O137        V141   1.933       .  S
O137        C144   1.270       .  A
O138        V141   1.938       .  S
O138        C143   1.271   1_556  A
O139        V141   1.927       .  S
O139        C142   1.273       .  A
V140        V141   2.082   1_554  T
C142        N348   1.457       .  S
C143        N362   1.461       .  S
C144        N390   1.458   1_556  S
C145        N146   1.462       .  S
N146        C150   1.362   1_556  A
N146        C147   1.367   1_556  A
C147        C148   1.379       .  A
C147       C1056   1.491       .  S
C148        C149   1.369       .  A
C148        H151   1.082       .  S
C149        C150   1.391       .  A
C149        H152   1.083       .  S
C150       C1003   1.505   1_554  S
C153        C154   1.547       .  S
C153        C159   1.503       .  S
C153        C157   1.539       .  S
C153        C580   1.527       .  S
C154        H161   1.086       .  S
C154        C155   1.380       .  D
C155        C156   1.547   1_556  S
C155        C608   1.490   1_556  S
C156        C160   1.548       .  S
C156        C158   1.559   1_554  S
C156        H162   1.108       .  S
C157        H163   1.081       .  S
C157        C158   1.383       .  D
C158        C594   1.516       .  S
C159        H164   1.091       .  S
C159        C160   1.332   1_556  D
C160        C566   1.480       .  S
O165        V173   1.934       .  S
O165        C175   1.269       .  A
O166        V173   1.932   1_566  S
O166        C176   1.275       .  A
O167        V173   1.904   1_565  S
O167        C177   1.268       .  A
O168        V173   1.908   1_556  S
O168        C178   1.268       .  A
O169        V174   1.927       .  S
O169        C178   1.271       .  A
O170        V174   1.923   1_564  S
O170        C177   1.268       .  A
O171        V174   1.933   1_565  S
O171        C176   1.268       .  A
O172        V174   1.923   1_554  S
O172        C175   1.272       .  A
V173        V174   2.082   1_554  T
C175        N355   1.459       .  S
C176        N179   1.463       .  S
C177        N198   1.452       .  S
C178        N205   1.455       .  S
N179        C183   1.374       .  A
N179        C180   1.377       .  A
C180        C181   1.380       .  A
C180        C863   1.507       .  S
C181        C182   1.363       .  A
C181        H184   1.083       .  S
C182        C183   1.384       .  A
C182        H185   1.082       .  S
C183        C975   1.514       .  S
C186        C187   1.551       .  S
C186        C192   1.494   1_565  S
C186        C190   1.549   1_565  S
C186        C552   1.532       .  S
C187        H194   1.085       .  S
C187        C188   1.382       .  D
C188        C189   1.541   1_565  S
C188        C527   1.499       .  S
C189        C193   1.555       .  S
C189        C191   1.554       .  S
C189        H195   1.106       .  S
C190        H196   1.079       .  S
C190        C191   1.382       .  D
C191        C510   1.523       .  S
C192        H197   1.091       .  S
C192        C193   1.334       .  D
C193        C538   1.479       .  S
N198        C202   1.360       .  A
N198        C199   1.364       .  A
C199        C200   1.380       .  A
C199        C524   1.489       .  S
C200        C201   1.366       .  A
C200        H203   1.083       .  S
C201        C202   1.389       .  A
C201        H204   1.083       .  S
C202        C961   1.496       .  S
N205        C209   1.370       .  A
N205        C206   1.357       .  A
C206        C207   1.380       .  A
C206        C849   1.483       .  S
C207        C208   1.359       .  A
C207        H210   1.077       .  S
C208        C209   1.379       .  A
C208        H211   1.083       .  S
C209        C583   1.486       .  S
O212        V220   1.933       .  S
O212        C222   1.270   1_455  A
O213        V220   1.923       .  S
O213        C223   1.273       .  A
O214        V220   1.907       .  S
O214        C224   1.266       .  A
O215        V220   1.910       .  S
O215        C225   1.268       .  A
O216        V221   1.949       .  S
O216        C225   1.274   1_655  A
O217        V221   1.938       .  S
O217        C224   1.274   1_655  A
O218        V221   1.908   1_455  S
O218        C223   1.262       .  A
O219        V221   1.913       .  S
O219        C222   1.271       .  A
V220        V221   2.083   1_455  T
C222        N341   1.461       .  S
C223        N320   1.448       .  S
C224        N376   1.459       .  S
C225        N226   1.462       .  S
N226        C230   1.374       .  A
N226        C227   1.371       .  A
C227        C228   1.377       .  A
C227        C779   1.478       .  S
C228        C229   1.353       .  A
C228        H231   1.083       .  S
C229        C230   1.382       .  A
C229        H232   1.083       .  S
C230        C944   1.497       .  S
O233        V241   1.953       .  S
O233        C243   1.276       .  A
O234        V241   1.952       .  S
O234        C244   1.277       .  A
O235        V241   1.897       .  S
O235        C245   1.266   1_545  A
O236        V241   1.907       .  S
O236        C246   1.266       .  A
O237        V242   1.952   1_545  S
O237        C246   1.276       .  A
O238        V242   1.955       .  S
O238        C245   1.277       .  A
O239        V242   1.894       .  S
O239        C244   1.265   1_565  A
O240        V242   1.904       .  S
O240        C243   1.268   1_565  A
V241        V242   2.080   1_545  T
C243        N334   1.472   1_545  S
C244        N313   1.462       .  S
C245        N247   1.465       .  S
C246        N383   1.462       .  S
N247        C251   1.367       .  A
N247        C248   1.372   1_565  A
C248        C249   1.381       .  A
C248        C832   1.498       .  S
C249        C250   1.356       .  A
C249        H252   1.081       .  S
C250        C251   1.388   1_545  A
C250        H253   1.081       .  S
C251        C891   1.497       .  S
C254        C255   1.557       .  S
C254        C260   1.491       .  S
C254        C258   1.553       .  S
C254        C454   1.539       .  S
C255        H262   1.085       .  S
C255        C256   1.386       .  D
C256        C257   1.549       .  S
C256        C482   1.517       .  S
C257        C261   1.565       .  S
C257        C259   1.551       .  S
C257        H263   1.105   1_545  S
C258        H264   1.081       .  S
C258        C259   1.385       .  D
C259        C496   1.525       .  S
C260        H265   1.092       .  S
C260        C261   1.330       .  D
C261        C468   1.493   1_545  S
O266        V274   1.933   1_465  S
O266        C276   1.270       .  A
O267        V274   1.927       .  S
O267        C277   1.273       .  A
O268        V274   1.921   1_565  S
O268        C278   1.267       .  A
O269        V274   1.920   1_455  S
O269        C279   1.271       .  A
O270        V275   1.926   1_455  S
O270        C279   1.270       .  A
O271        V275   1.922   1_565  S
O271        C278   1.273       .  A
O272        V275   1.927       .  S
O272        C277   1.267       .  A
O273        V275   1.923   1_465  S
O273        C276   1.272       .  A
V274        V275   2.082       .  T
C276        N306   1.463       .  S
C277        N299   1.456       .  S
C278        N280   1.459       .  S
C279        N327   1.463       .  S
N280        C284   1.360       .  A
N280        C281   1.366       .  A
C281        C282   1.382       .  A
C281        C807   1.497       .  S
C282        C283   1.367       .  A
C282        H285   1.082       .  S
C283        C284   1.388       .  A
C283        H286   1.082       .  S
C284        C748   1.500       .  S
C287        C288   1.544   1_655  S
C287        C293   1.504       .  S
C287        C291   1.554       .  S
C287        C415   1.540       .  S
C288        H295   1.077       .  S
C288        C289   1.376       .  D
C289        C290   1.549       .  S
C289        C426   1.508       .  S
C290        C294   1.546       .  S
C290        C292   1.545   1_455  S
C290        H296   1.110       .  S
C291        H297   1.085       .  S
C291        C292   1.377       .  D
C292        C440   1.486       .  S
C293        H298   1.086       .  S
C293        C294   1.347   1_655  D
C294        C401   1.491       .  S
N299        C303   1.366       .  A
N299        C300   1.365       .  A
C300        C301   1.386       .  A
C300        C793   1.493       .  S
C301        C302   1.359       .  A
C301        H304   1.082       .  S
C302        C303   1.378       .  A
C302        H305   1.083       .  S
C303        C412   1.482       .  S
N306        C310   1.368       .  A
N306        C307   1.373       .  A
C307        C308   1.391       .  A
C307        C471   1.525       .  S
C308        C309   1.363       .  A
C308        H311   1.079       .  S
C309        C310   1.377       .  A
C309        H312   1.083       .  S
C310        C737   1.496       .  S
N313        C317   1.364       .  A
N313        C314   1.374   1_545  A
C314        C315   1.380       .  A
C314        C485   1.496   1_565  S
C315        C316   1.360       .  A
C315        H318   1.083       .  S
C316        C317   1.387   1_565  A
C316        H319   1.082       .  S
C317        C877   1.495       .  S
N320        C324   1.354       .  A
N320        C321   1.361       .  A
C321        C322   1.384       .  A
C321        C429   1.493       .  S
C322        C323   1.373       .  A
C322        H325   1.082       .  S
C323        C324   1.383       .  A
C323        H326   1.081       .  S
C324        C933   1.504       .  S
N327        C331   1.371       .  A
N327        C328   1.362       .  A
C328        C329   1.383       .  A
C328        C398   1.499       .  S
C329        C330   1.364       .  A
C329        H332   1.078       .  S
C330        C331   1.379       .  A
C330        H333   1.083       .  S
C331        C457   1.493       .  S
N334        C338   1.366       .  A
N334        C335   1.365       .  A
C335        C336   1.390       .  A
C335        C818   1.516   1_565  S
C336        C337   1.371       .  A
C336        H339   1.083       .  S
C337        C338   1.384       .  A
C337        H340   1.081       .  S
C338        C555   1.490       .  S
N341        C345   1.369       .  A
N341        C342   1.365       .  A
C342        C343   1.381       .  A
C342        C765   1.497       .  S
C343        C344   1.364       .  A
C343        H346   1.082       .  S
C344        C345   1.390       .  A
C344        H347   1.081       .  S
C345        C667   1.523       .  S
N348        C352   1.363       .  A
N348        C349   1.365       .  A
C349        C350   1.386       .  A
C349       C1045   1.508       .  S
C350        C351   1.365       .  A
C350        H353   1.082       .  S
C351        C352   1.386       .  A
C351        H354   1.082       .  S
C352        C597   1.511       .  S
N355        C359   1.376       .  A
N355        C356   1.369       .  A
C356        C357   1.381       .  A
C356        C513   1.494       .  S
C357        C358   1.352       .  A
C357        H360   1.083       .  S
C358        C359   1.384       .  A
C358        H361   1.082       .  S
C359        C569   1.505       .  S
N362        C366   1.369       .  A
N362        C363   1.367       .  A
C363        C364   1.381       .  A
C363        C989   1.488       .  S
C364        C365   1.359       .  A
C364        H367   1.082       .  S
C365        C366   1.381       .  A
C365        H368   1.082       .  S
C366        C709   1.491       .  S
N369        C373   1.365       .  A
N369        C370   1.368       .  A
C370        C371   1.390       .  A
C370        C622   1.522       .  S
C371        C372   1.367       .  A
C371        H374   1.082       .  S
C372        C373   1.379       .  A
C372        H375   1.082       .  S
C373        C678   1.502       .  S
N376        C380   1.371       .  A
N376        C377   1.362       .  A
C377        C378   1.383       .  A
C377        C443   1.486   1_455  S
C378        C379   1.357       .  A
C378        H381   1.081       .  S
C379        C380   1.378       .  A
C379        H382   1.083       .  S
C380        C653   1.482       .  S
N383        C387   1.377       .  A
N383        C384   1.376       .  A
C384        C385   1.383       .  A
C384        C499   1.498       .  S
C385        C386   1.347       .  A
C385        H388   1.083       .  S
C386        C387   1.377       .  A
C386        H389   1.082       .  S
C387        C541   1.487       .  S
N390        C394   1.368       .  A
N390        C391   1.364       .  A
C391        C392   1.382       .  A
C391        C723   1.488   1_554  S
C392        C393   1.360       .  A
C392        H395   1.083       .  S
C393        C394   1.382       .  A
C393        H396   1.082       .  S
C394        C611   1.495       .  S
C397        C398   1.414       .  A
C397        C402   1.408       .  A
C397        H404   1.082       .  S
C398        C399   1.409       .  A
C399        C400   1.415       .  A
C399        N406   1.430   1_455  S
C400        C401   1.414       .  A
C400        H405   1.084   1_455  S
C401        C402   1.402       .  A
C402        N403   1.431       .  S
N403        H407   1.045       .  S
N403        H408   1.046       .  S
N406        H409   1.046       .  S
N406        H410   1.046       .  S
C411        C412   1.395       .  A
C411        C416   1.401       .  A
C411        H418   1.084       .  S
C412        C413   1.407       .  A
C413        C414   1.406       .  A
C413        N420   1.432       .  S
C414        C415   1.416       .  A
C414        H419   1.082       .  S
C415        C416   1.433       .  A
C416        N417   1.431   1_655  S
N417        H421   1.043       .  S
N417        H422   1.044       .  S
N420        H423   1.045       .  S
N420        H424   1.046       .  S
C425        C426   1.411       .  A
C425        C430   1.412       .  A
C425        H432   1.083       .  S
C426        C427   1.420       .  A
C427        C428   1.397       .  A
C427        N434   1.433       .  S
C428        C429   1.401       .  A
C428        H433   1.083       .  S
C429        C430   1.412       .  A
C430        N431   1.433       .  S
N431        H435   1.044       .  S
N431        H436   1.045       .  S
N434        H437   1.045   1_455  S
N434        H438   1.046       .  S
C439        C440   1.405       .  A
C439        C444   1.404       .  A
C439        H446   1.079       .  S
C440        C441   1.404       .  A
C441        C442   1.404       .  A
C441        N448   1.431       .  S
C442        C443   1.409       .  A
C442        H447   1.083       .  S
C443        C444   1.410       .  A
C444        N445   1.430       .  S
N445        H449   1.045       .  S
N445        H450   1.043       .  S
N448        H451   1.045       .  S
N448        H452   1.046       .  S
C453        C454   1.419       .  A
C453        C458   1.415       .  A
C453        H460   1.082       .  S
C454        C455   1.421       .  A
C455        C456   1.407       .  A
C455        N462   1.430       .  S
C456        C457   1.402       .  A
C456        H461   1.081       .  S
C457        C458   1.409       .  A
C458        N459   1.437       .  S
N459        H463   1.046       .  S
N459        H464   1.046       .  S
N462        H465   1.046       .  S
N462        H466   1.046       .  S
C467        C468   1.412       .  A
C467        C472   1.412       .  A
C467        H474   1.085       .  S
C468        C469   1.410       .  A
C469        C470   1.408       .  A
C469        N476   1.433   1_565  S
C470        C471   1.420       .  A
C470        H475   1.079       .  S
C471        C472   1.416       .  A
C472        N473   1.430       .  S
N473        H477   1.046       .  S
N473        H478   1.044       .  S
N476        H479   1.045   1_545  S
N476        H480   1.045       .  S
C481        C482   1.413       .  A
C481        C486   1.409       .  A
C481        H488   1.080       .  S
C482        C483   1.416   1_545  A
C483        C484   1.413       .  A
C483        N490   1.437       .  S
C484        C485   1.407   1_565  A
C484        H489   1.084       .  S
C485        C486   1.408       .  A
C486        N487   1.432       .  S
N487        H491   1.044       .  S
N487        H492   1.046       .  S
N490        H493   1.046       .  S
N490        H494   1.045       .  S
C495        C496   1.416       .  A
C495        C500   1.418       .  A
C495        H502   1.082       .  S
C496        C497   1.424       .  A
C497        C498   1.403       .  A
C497        N504   1.432       .  S
C498        C499   1.403       .  A
C498        H503   1.085       .  S
C499        C500   1.408       .  A
C500        N501   1.431   1_545  S
N501        H505   1.046       .  S
N501        H506   1.045       .  S
N504        H507   1.044       .  S
N504        H508   1.046       .  S
C509        C510   1.414       .  A
C509        C514   1.412       .  A
C509        H516   1.081       .  S
C510        C511   1.427       .  A
C511        C512   1.402       .  A
C511        N518   1.431   1_545  S
C512        C513   1.401       .  A
C512        H517   1.084       .  S
C513        C514   1.407       .  A
C514        N515   1.429       .  S
N515        H519   1.045       .  S
N515        H520   1.046       .  S
N518        H521   1.045       .  S
N518        H522   1.046   1_565  S
C523        C524   1.407       .  A
C523        C528   1.410       .  A
C523        H530   1.084       .  S
C524        C525   1.410       .  A
C525        C526   1.401       .  A
C525        N532   1.432       .  S
C526        C527   1.407       .  A
C526        H531   1.082       .  S
C527        C528   1.411       .  A
C528        N529   1.432       .  S
N529        H533   1.046   1_565  S
N529        H534   1.045       .  S
N532        H535   1.045       .  S
N532        H536   1.045       .  S
C537        C538   1.406       .  A
C537        C542   1.401       .  A
C537        H544   1.085       .  S
C538        C539   1.410       .  A
C539        C540   1.411       .  A
C539        N546   1.431   1_545  S
C540        C541   1.405       .  A
C540        H545   1.084       .  S
C541        C542   1.418       .  A
C542        N543   1.434       .  S
N543        H547   1.042       .  S
N543        H548   1.046       .  S
N546        H549   1.046       .  S
N546        H550   1.045       .  S
C551        C552   1.416       .  A
C551        C556   1.404       .  A
C551        H558   1.082       .  S
C552        C553   1.421       .  A
C553        C554   1.399       .  A
C553        N560   1.431   1_565  S
C554        C555   1.401       .  A
C554        H559   1.082   1_565  S
C555        C556   1.412       .  A
C556        N557   1.432       .  S
N557        H561   1.045       .  S
N557        H562   1.043       .  S
N560        H563   1.046       .  S
N560        H564   1.046       .  S
C565        C566   1.412       .  A
C565        C570   1.411       .  A
C565        H572   1.084       .  S
C566        C567   1.400       .  A
C567        C568   1.405       .  A
C567        N574   1.432       .  S
C568        C569   1.415       .  A
C568        H573   1.082       .  S
C569        C570   1.412       .  A
C570        N571   1.430       .  S
N571        H575   1.045       .  S
N571        H576   1.046       .  S
N574        H577   1.046   1_554  S
N574        H578   1.045       .  S
C579        C580   1.413       .  A
C579        C584   1.407       .  A
C579        H586   1.082       .  S
C580        C581   1.423       .  A
C581        C582   1.404       .  A
C581        N588   1.432       .  S
C582        C583   1.401       .  A
C582        H587   1.082       .  S
C583        C584   1.407       .  A
C584        N585   1.432       .  S
N585        H589   1.046       .  S
N585        H590   1.045       .  S
N588        H591   1.046       .  S
N588        H592   1.046       .  S
C593        C594   1.411       .  A
C593        C598   1.408       .  A
C593        H600   1.078   1_556  S
C594        C595   1.412       .  A
C595        C596   1.406       .  A
C595        N602   1.433       .  S
C596        C597   1.415       .  A
C596        H601   1.082       .  S
C597        C598   1.408       .  A
C598        N599   1.427       .  S
N599        H603   1.045   1_556  S
N599        H604   1.042   1_556  S
N602        H605   1.046       .  S
N602        H606   1.046       .  S
C607        C608   1.406   1_556  A
C607        C612   1.406       .  A
C607        H614   1.084       .  S
C608        C609   1.405       .  A
C609        C610   1.406       .  A
C609        N616   1.432       .  S
C610        C611   1.411       .  A
C610        H615   1.083       .  S
C611        C612   1.413   1_554  A
C612        N613   1.432       .  S
N613        H617   1.045       .  S
N613        H618   1.046       .  S
N616        H619   1.045       .  S
N616        H620   1.046       .  S
C621        C622   1.416       .  A
C621        C626   1.405       .  A
C621        H628   1.082       .  S
C622        C623   1.414       .  A
C623        C624   1.420       .  A
C623        N630   1.428       .  S
C624        C625   1.410       .  A
C624        H629   1.082       .  S
C625        C626   1.406       .  A
C626        N627   1.433       .  S
N627        H631   1.046       .  S
N627        H632   1.045       .  S
N630        H633   1.045       .  S
N630        H634   1.044   1_455  S
C635        C636   1.402       .  A
C635        C640   1.402       .  A
C635        H642   1.082       .  S
C636        C637   1.420       .  A
C637        C638   1.410       .  A
C637        N644   1.431       .  S
C638        C639   1.406       .  A
C638        H643   1.082       .  S
C639        C640   1.422       .  A
C640        N641   1.430       .  S
N641        H645   1.046       .  S
N641        H646   1.045   1_655  S
N644        H647   1.045       .  S
N644        H648   1.045       .  S
C649        C650   1.408       .  A
C649        C654   1.403       .  A
C649        H656   1.085       .  S
C650        C651   1.414   1_455  A
C651        C652   1.400       .  A
C651        N658   1.433       .  S
C652        C653   1.403   1_655  A
C652        H657   1.083       .  S
C653        C654   1.414       .  A
C654        N655   1.433       .  S
N655        H659   1.044       .  S
N655        H660   1.046       .  S
N658        H661   1.045       .  S
N658        H662   1.045       .  S
C663        C664   1.421   1_455  A
C663        C668   1.418   1_455  A
C663        H670   1.084       .  S
C664        C665   1.409       .  A
C665        C666   1.407       .  A
C665        N672   1.430       .  S
C666        C667   1.417       .  A
C666        H671   1.080       .  S
C667        C668   1.413       .  A
C668        N669   1.429   1_655  S
N669        H673   1.045       .  S
N669        H674   1.046       .  S
N672        H675   1.046       .  S
N672        H676   1.045       .  S
C677        C678   1.404       .  A
C677        C682   1.412       .  A
C677        H684   1.084       .  S
C678        C679   1.417       .  A
C679        C680   1.405       .  A
C679        N686   1.431       .  S
C680        C681   1.415       .  A
C680        H685   1.083       .  S
C681        C682   1.424       .  A
C682        N683   1.430   1_554  S
N683        H687   1.046       .  S
N683        H688   1.046       .  S
N686        H689   1.045       .  S
N686        H690   1.044       .  S
C691        C692   1.416       .  A
C691        C696   1.410       .  A
C691        H698   1.083       .  S
C692        C693   1.406       .  A
C693        C694   1.418       .  A
C693        N700   1.431       .  S
C694        C695   1.418       .  A
C694        H699   1.083   1_556  S
C695        C696   1.406       .  A
C696        N697   1.431       .  S
N697        H701   1.045       .  S
N697        H702   1.046       .  S
N700        H703   1.045   1_556  S
N700        H704   1.046   1_556  S
C705        C706   1.413       .  A
C705        C710   1.405       .  A
C705        H712   1.082       .  S
C706        C707   1.413       .  A
C707        C708   1.411       .  A
C707        N714   1.432       .  S
C708        C709   1.406       .  A
C708        H713   1.083       .  S
C709        C710   1.412       .  A
C710        N711   1.434       .  S
N711        H715   1.044       .  S
N711        H716   1.045       .  S
N714        H717   1.045   1_554  S
N714        H718   1.045       .  S
C719        C720   1.407       .  A
C719        C724   1.400       .  A
C719        H726   1.082       .  S
C720        C721   1.423       .  A
C721        C722   1.414       .  A
C721        N728   1.433       .  S
C722        C723   1.398       .  A
C722        H727   1.083       .  S
C723        C724   1.419       .  A
C724        N725   1.433       .  S
N725        H729   1.042       .  S
N725        H730   1.044       .  S
N728        H731   1.046       .  S
N728        H732   1.045       .  S
C733        C734   1.412       .  A
C733        C738   1.402       .  A
C733        H740   1.081       .  S
C734        C735   1.421   1_455  A
C735        C736   1.411       .  A
C735        N742   1.431       .  S
C736        C737   1.406   1_655  A
C736        H741   1.084       .  S
C737        C738   1.408       .  A
C738        N739   1.428       .  S
N739        H743   1.046       .  S
N739        H744   1.046       .  S
N742        H745   1.046       .  S
N742        H746   1.045       .  S
C747        C748   1.414       .  A
C747        C752   1.406       .  A
C747        H754   1.084       .  S
C748        C749   1.414       .  A
C749        C750   1.410       .  A
C749        N756   1.431       .  S
C750        C751   1.414       .  A
C750        H755   1.084       .  S
C751        C752   1.409       .  A
C752        N753   1.435       .  S
N753        H757   1.045       .  S
N753        H758   1.045       .  S
N756        H759   1.045       .  S
N756        H760   1.045       .  S
C761        C762   1.407       .  A
C761        C766   1.398       .  A
C761        H768   1.082       .  S
C762        C763   1.411       .  A
C763        C764   1.410       .  A
C763        N770   1.432       .  S
C764        C765   1.409       .  A
C764        H769   1.084       .  S
C765        C766   1.417       .  A
C766        N767   1.431       .  S
N767        H771   1.044       .  S
N767        H772   1.045   1_655  S
N770        H773   1.046       .  S
N770        H774   1.045       .  S
C775        C776   1.405       .  A
C775        C780   1.403       .  A
C775        H782   1.083   1_455  S
C776        C777   1.421       .  A
C777        C778   1.407       .  A
C777        N784   1.432       .  S
C778        C779   1.400       .  A
C778        H783   1.084       .  S
C779        C780   1.408       .  A
C780        N781   1.432       .  S
N781        H785   1.045   1_455  S
N781        H786   1.046       .  S
N784        H787   1.045       .  S
N784        H788   1.045       .  S
C789        C790   1.409       .  A
C789        C794   1.398       .  A
C789        H796   1.079       .  S
C790        C791   1.414       .  A
C791        C792   1.415       .  A
C791        N798   1.431       .  S
C792        C793   1.408       .  A
C792        H797   1.083       .  S
C793        C794   1.408       .  A
C794        N795   1.433       .  S
N795        H799   1.046       .  S
N795        H800   1.046   1_545  S
N798        H801   1.046       .  S
N798        H802   1.045       .  S
C803        C804   1.409       .  A
C803        C808   1.408       .  A
C803        H810   1.084       .  S
C804        C805   1.426       .  A
C805        C806   1.406       .  A
C805        N812   1.431       .  S
C806        C807   1.404       .  A
C806        H811   1.084       .  S
C807        C808   1.409       .  A
C808        N809   1.432       .  S
N809        H813   1.045       .  S
N809        H814   1.046       .  S
N812        H815   1.041       .  S
N812        H816   1.044       .  S
C817        C818   1.403       .  A
C817        C822   1.418       .  A
C817        H824   1.083       .  S
C818        C819   1.430   1_545  A
C819        C820   1.408   1_565  A
C819        N826   1.432       .  S
C820        C821   1.397       .  A
C820        H825   1.084   1_545  S
C821        C822   1.420       .  A
C822        N823   1.430       .  S
N823        H827   1.046       .  S
N823        H828   1.045       .  S
N826        H829   1.046       .  S
N826        H830   1.046       .  S
C831        C832   1.404   1_565  A
C831        C836   1.415       .  A
C831        H838   1.083       .  S
C832        C833   1.410       .  A
C833        C834   1.400       .  A
C833        N840   1.434       .  S
C834        C835   1.415   1_545  A
C834        H839   1.082       .  S
C835        C836   1.423       .  A
C836        N837   1.430       .  S
N837        H841   1.045       .  S
N837        H842   1.046       .  S
N840        H843   1.046       .  S
N840        H844   1.046       .  S
C845        C846   1.405       .  A
C845        C850   1.410       .  A
C845        H852   1.083   1_545  S
C846        C847   1.404       .  A
C847        C848   1.401       .  A
C847        N854   1.433       .  S
C848        C849   1.407       .  A
C848        H853   1.083       .  S
C849        C850   1.406       .  A
C850        N851   1.434   1_545  S
N851        H855   1.043       .  S
N851        H856   1.044       .  S
N854        H857   1.045       .  S
N854        H858   1.046       .  S
C859        C860   1.401       .  A
C859        C864   1.401       .  A
C859        H866   1.083       .  S
C860        C861   1.409       .  A
C861        C862   1.419       .  A
C861        N868   1.432   1_565  S
C862        C863   1.413       .  A
C862        H867   1.083       .  S
C863        C864   1.410       .  A
C864        N865   1.422       .  S
N865        H869   1.044       .  S
N865        H870   1.046       .  S
N868        H871   1.044       .  S
N868        H872   1.045   1_545  S
C873        C874   1.415       .  A
C873        C878   1.415       .  A
C873        H880   1.084       .  S
C874        C875   1.402       .  A
C875        C876   1.406       .  A
C875        N882   1.431       .  S
C876        C877   1.413       .  A
C876        H881   1.084       .  S
C877        C878   1.405       .  A
C878        N879   1.435       .  S
N879        H883   1.046       .  S
N879        H884   1.044       .  S
N882        H885   1.046       .  S
N882        H886   1.045       .  S
C887        C888   1.405       .  A
C887        C892   1.406       .  A
C887        H894   1.081       .  S
C888        C889   1.422       .  A
C889        C890   1.416       .  A
C889        N896   1.435       .  S
C890        C891   1.402       .  A
C890        H895   1.083       .  S
C891        C892   1.418       .  A
C892        N893   1.432       .  S
N893        H897   1.045       .  S
N893        H898   1.047       .  S
N896        H899   1.046       .  S
N896        H900   1.045       .  S
C901        C902   1.404       .  A
C901        C906   1.406       .  A
C901        H908   1.083       .  S
C902        C903   1.408       .  A
C903        C904   1.404       .  A
C903        N910   1.432       .  S
C904        C905   1.414       .  A
C904        H909   1.082       .  S
C905        C906   1.422       .  A
C906        N907   1.431       .  S
N907        H911   1.046       .  S
N907        H912   1.046       .  S
N910        H913   1.045       .  S
N910        H914   1.046       .  S
C915        C916   1.416       .  A
C915        C920   1.417       .  A
C915        H922   1.084       .  S
C916        C917   1.401       .  A
C917        C918   1.408       .  A
C917        N924   1.431       .  S
C918        C919   1.422       .  A
C918        H923   1.078       .  S
C919        C920   1.414       .  A
C920        N921   1.430       .  S
N921        H925   1.045       .  S
N921        H926   1.046       .  S
N924        H927   1.045       .  S
N924        H928   1.046       .  S
C929        C930   1.406       .  A
C929        C934   1.399       .  A
C929        H936   1.082       .  S
C930        C931   1.423       .  A
C931        C932   1.415       .  A
C931        N938   1.434   1_455  S
C932        C933   1.403       .  A
C932        H937   1.082       .  S
C933        C934   1.425       .  A
C934        N935   1.433       .  S
N935        H939   1.039       .  S
N935        H940   1.046       .  S
N938        H941   1.046       .  S
N938        H942   1.045       .  S
C943        C944   1.410       .  A
C943        C948   1.417   1_455  A
C943        H950   1.083   1_455  S
C944        C945   1.413       .  A
C945        C946   1.404       .  A
C945        N952   1.439       .  S
C946        C947   1.409       .  A
C946        H951   1.083       .  S
C947        C948   1.419   1_455  A
C948        N949   1.431       .  S
N949        H953   1.046       .  S
N949        H954   1.043       .  S
N952        H955   1.041       .  S
N952        H956   1.048       .  S
C957        C958   1.405       .  A
C957        C962   1.412       .  A
C957        H964   1.083   1_554  S
C958        C959   1.403       .  A
C959        C960   1.400       .  A
C959        N966   1.432       .  S
C960        C961   1.409       .  A
C960        H965   1.084       .  S
C961        C962   1.408       .  A
C962        N963   1.432       .  S
N963        H967   1.044   1_554  S
N963        H968   1.045       .  S
N966        H969   1.046       .  S
N966        H970   1.045       .  S
C971        C972   1.406       .  A
C971        C976   1.411       .  A
C971        H978   1.083       .  S
C972        C973   1.413       .  A
C973        C974   1.415       .  A
C973        N980   1.437   1_556  S
C974        C975   1.413       .  A
C974        H979   1.083       .  S
C975        C976   1.414       .  A
C976        N977   1.427       .  S
N977        H981   1.041       .  S
N977        H982   1.046       .  S
N980        H983   1.045       .  S
N980        H984   1.045   1_554  S
C985        C986   1.402       .  A
C985        C990   1.405       .  A
C985        H992   1.084       .  S
C986        C987   1.412       .  A
C987        C988   1.405       .  A
C987        N994   1.433   1_554  S
C988        C989   1.404       .  A
C988        H993   1.083       .  S
C989        C990   1.413       .  A
C990        N991   1.432       .  S
N991        H995   1.046       .  S
N991        H996   1.046       .  S
N994        H997   1.045       .  S
N994        H998   1.046       .  S
C999       C1000   1.422       .  A
C999       C1004   1.421       .  A
C999       H1006   1.083       .  S
C1000      C1001   1.412       .  A
C1001      C1002   1.407       .  A
C1001      N1008   1.434       .  S
C1002      C1003   1.411       .  A
C1002      H1007   1.083       .  S
C1003      C1004   1.409       .  A
C1004      N1005   1.430       .  S
N1005      H1009   1.046       .  S
N1005      H1010   1.045       .  S
N1008      H1011   1.045       .  S
N1008      H1012   1.046       .  S
C1013      C1014   1.419       .  A
C1013      C1018   1.413       .  A
C1013      H1020   1.083       .  S
C1014      C1015   1.415       .  A
C1015      C1016   1.402       .  A
C1015      N1022   1.431       .  S
C1016      C1017   1.410       .  A
C1016      H1021   1.080       .  S
C1017      C1018   1.412       .  A
C1018      N1019   1.431       .  S
N1019      H1023   1.045       .  S
N1019      H1024   1.046       .  S
N1022      H1025   1.046   1_554  S
N1022      H1026   1.046       .  S
C1027      C1028   1.408       .  A
C1027      C1032   1.410       .  A
C1027      H1034   1.084       .  S
C1028      C1029   1.416       .  A
C1029      C1030   1.405       .  A
C1029      N1036   1.433       .  S
C1030      C1031   1.409       .  A
C1030      H1035   1.084       .  S
C1031      C1032   1.413       .  A
C1032      N1033   1.430       .  S
N1033      H1037   1.045       .  S
N1033      H1038   1.046       .  S
N1036      H1039   1.045       .  S
N1036      H1040   1.044       .  S
C1041      C1042   1.409       .  A
C1041      C1046   1.408       .  A
C1041      H1048   1.083   1_556  S
C1042      C1043   1.408       .  A
C1043      C1044   1.409       .  A
C1043      N1050   1.432       .  S
C1044      C1045   1.412       .  A
C1044      H1049   1.082       .  S
C1045      C1046   1.415       .  A
C1046      N1047   1.432       .  S
N1047      H1051   1.045   1_556  S
N1047      H1052   1.046       .  S
N1050      H1053   1.046       .  S
N1050      H1054   1.045       .  S
C1055      C1056   1.404   1_556  A
C1055      C1060   1.409       .  A
C1055      H1062   1.083       .  S
C1056      C1057   1.406       .  A
C1057      C1058   1.411       .  A
C1057      N1064   1.432       .  S
C1058      C1059   1.413       .  A
C1058      H1063   1.082       .  S
C1059      C1060   1.415   1_554  A
C1060      N1061   1.432       .  S
N1061      H1065   1.046       .  S
N1061      H1066   1.046       .  S
N1064      H1067   1.045       .  S
N1064      H1068   1.045       .  S
