geometry optimzed in LAMMPS
_audit_creation_date              2020-11-30 
_audit_creation_method            'lammps2cif' 
_symmetry_space_group_name_H-M    'P1' 
_symmetry_Int_Tables_number       1 
_symmetry_cell_setting            triclinic 
loop_ 
_symmetry_equiv_pos_as_xyz 
  x,y,z 
_cell_length_a                    25.64611461 
_cell_length_b                    40.7930426834482 
_cell_length_c                    25.09234954029845 
_cell_angle_alpha                 90.75371529458192 
_cell_angle_beta                  95.82497003723931 
_cell_angle_gamma                 86.52886214047702 
loop_ 
_atom_site_label 
_atom_site_type_symbol 
_atom_site_fract_x 
_atom_site_fract_y 
_atom_site_fract_z 
_atom_site_charge 
C1          C  0.05019481  0.86577680  0.13948827     0.85500
C2          C  0.00914136  0.84893127  0.16836710    -0.54800
C3          C  0.02706653  0.82156434  0.19736530     0.08400
C4          C  0.08369920  0.80953032  0.18384322     0.19300
C5          C  0.09952668  0.86641601  0.17966520    -0.55500
C6          C  0.11850440  0.83780349  0.20402615     0.08500
C7          C  0.06271999  0.83927354  0.09840708    -0.55000
C8          C  0.08104051  0.80968651  0.11953664     0.09100
H9          H  0.21903918  0.85733496  0.16662333     0.13600
H10         H  0.09706303  0.78592526  0.20338514    -0.00700
H11         H  0.11678032  0.88934298  0.18850029     0.13900
H12         H  0.05511281  0.84345868  0.05568358     0.13700
C13         C  0.10773822  0.72249934  0.06458507     0.85500
C14         C  0.10311914  0.75044405  0.10451597    -0.54800
C15         C  0.09170380  0.78065670  0.08266947     0.08400
C16         C  0.08964152  0.77991309  0.01831383     0.19300
C17         C  0.05866943  0.72587226  0.02473270    -0.55500
C18         C  0.04850741  0.75476971  0.49856921     0.08500
C19         C  0.15330778  0.73363776  0.03459412    -0.55000
C20         C  0.14318830  0.76226840  0.00553324     0.09100
H21         H  0.10881782  0.74607129  0.14719495     0.13600
H22         H  0.08205786  0.80411512  0.49857611    -0.00700
H23         H  0.28030417  0.70541343  0.01311829     0.13900
H24         H  0.18953520  0.71911827  0.03209706     0.13700
C25         C  0.22836572  0.86532061  0.31347401     0.85500
C26         C  0.27115967  0.84980001  0.28116822    -0.54800
C27         C  0.25870731  0.82203812  0.25220897     0.08400
C28         C  0.20520936  0.80932115  0.26666182     0.19300
C29         C  0.17708544  0.86596131  0.27584186    -0.55500
C30         C  0.16408389  0.83761671  0.24929448     0.08500
C31         C  0.22337552  0.83799229  0.35313250    -0.55000
C32         C  0.20967600  0.80874365  0.33089757     0.09100
H33         H  0.05836266  0.86059260  0.27923475     0.13600
H34         H  0.19610235  0.78578129  0.24639125    -0.00700
H35         H  0.15363581  0.88854299  0.27057962     0.13900
H36         H  0.23151988  0.84174844  0.39588166     0.13700
C37         C  0.19878491  0.72169351  0.38512065     0.85500
C38         C  0.19747692  0.74939725  0.34496889    -0.54800
C39         C  0.20353040  0.77988169  0.36704707     0.08400
C40         C  0.21036785  0.77946226  0.43166348     0.19300
C41         C  0.25246402  0.72619014  0.41777834    -0.55500
C42         C  0.25820519  0.75516767  0.44577501     0.08500
C43         C  0.15758694  0.73247785  0.42293698    -0.55000
C44         C  0.16336076  0.76130297  0.45010929     0.09100
H45         H  0.19468957  0.74455015  0.30226662     0.13600
H46         H  0.21474920  0.80362290  0.45170251    -0.00700
H47         H  0.28681431  0.71021470  0.41583817     0.13900
H48         H  0.12888295  0.71566055  0.43287544     0.13700
C49         C  0.01357677  0.22375795  0.14942857     0.85500
C50         C  0.01548674  0.25036915  0.10766398    -0.54800
C51         C  0.02225206  0.28115464  0.12904601     0.08400
C52         C  0.02621081  0.28156780  0.19377195     0.19300
C53         C  0.06576990  0.22727970  0.18442730    -0.55500
C54         C  0.07211066  0.25643855  0.21105575     0.08500
C55         C  0.96971662  0.23648700  0.18212367    -0.55000
C56         C  0.97651410  0.26494245  0.20969737     0.09100
H57         H  0.01298825  0.24495078  0.06511715     0.13600
H58         H  0.03098795  0.30571748  0.21365235    -0.00700
H59         H  0.09658533  0.20802257  0.18750559     0.13900
H60         H  0.18797307  0.22227891  0.18479573     0.13700
C61         C  0.04536391  0.36662106  0.07695308     0.85500
C62         C  0.08974153  0.35297632  0.04481720    -0.54800
C63         C  0.08022548  0.32524920  0.01489425     0.08400
C64         C  0.02763651  0.31051238  0.02865273     0.19300
C65         C  0.99677024  0.36679858  0.03576226    -0.55500
C66         C  0.98574708  0.33794155  0.50988207     0.08500
C67         C  0.03774662  0.33990878  0.11585276    -0.55000
C68         C  0.02898636  0.31003738  0.09299814     0.09100
H69         H  0.12125885  0.36830024  0.03722086     0.13600
H70         H  0.02070190  0.28666878  0.50832217    -0.00700
H71         H  0.21052065  0.38828466  0.03335414     0.13900
H72         H  0.03960410  0.34485303  0.15844936     0.13700
C73         C  0.17456996  0.22526916  0.32299931     0.85500
C74         C  0.17163243  0.25338535  0.36333308    -0.54800
C75         C  0.15884340  0.28351851  0.34149371     0.08400
C76         C  0.15395104  0.28250522  0.27711228     0.19300
C77         C  0.12269486  0.22877153  0.28798645    -0.55500
C78         C  0.11202668  0.25720743  0.26031844     0.08500
C79         C  0.21726307  0.23568922  0.28934266    -0.55000
C80         C  0.20668627  0.26485257  0.26198286     0.09100
H81         H  0.18040166  0.24981845  0.40587311     0.13600
H82         H  0.14509543  0.30653033  0.25708769    -0.00700
H83         H  0.09698835  0.20879301  0.28366525     0.13900
H84         H  0.99848771  0.21846270  0.28514727     0.13700
C85         C  0.12424231  0.36962948  0.39887187     0.85500
C86         C  0.08347499  0.35607591  0.43189912    -0.54800
C87         C  0.09806416  0.32719181  0.45862434     0.08400
C88         C  0.15234285  0.31256095  0.44269257     0.19300
C89         C  0.17625789  0.36830423  0.43509631    -0.55500
C90         C  0.19074547  0.33941375  0.46087168     0.08500
C91         C  0.13478148  0.34296408  0.35744645    -0.55000
C92         C  0.14868394  0.31264457  0.37836777     0.09100
H93         H  0.05030129  0.37184305  0.44179376     0.13600
H94         H  0.16377950  0.28870444  0.46231041    -0.00700
H95         H  0.19999018  0.38933365  0.44041278     0.13900
H96         H  0.13282620  0.34799654  0.31502441     0.13700
O97         O  0.13567911  0.50788279  0.16930925    -0.74000
O98         O  0.16403893  0.57605996  0.28139610    -0.74900
O99         O  0.14960401  0.50535977  0.28159567    -0.63600
O100        O  0.14434187  0.57754357  0.17046586    -0.72000
O101        O  0.05893853  0.58308648  0.17617648    -0.71500
O102        O  0.06517180  0.51642936  0.29029910    -0.62800
O103        O  0.07937229  0.58671486  0.28777557    -0.75300
O104        O  0.05111496  0.51364283  0.17915912    -0.74100
Cu105      Cu  0.15145175  0.54141058  0.22579397     1.04600
Cu106      Cu  0.06077493  0.55034633  0.23360971     1.04300
C107        C  0.08960802  0.49809655  0.15912661     0.92200
C108        C  0.12716468  0.59412574  0.29902748     0.91400
C109        C  0.10696771  0.49822490  0.30032954     0.83500
C110        C  0.09956593  0.59240736  0.15712846     0.89800
O111        O  0.17809983  0.08036400  0.43365008    -0.74000
O112        O  0.21400215  0.00885847  0.04261732    -0.74900
O113        O  0.19706560  0.07893760  0.04495834    -0.63600
O114        O  0.19172790  0.00852136  0.43293909    -0.72000
O115        O  0.02873831  0.01153078  0.42782533    -0.71500
O116        O  0.03176280  0.08529563  0.03660133    -0.62800
O117        O  0.05125390  0.01617360  0.03913324    -0.75300
O118        O  0.01317721  0.08303310  0.42545005    -0.74100
Cu119      Cu  0.19217201  0.04409780  0.48859541     1.04600
Cu120      Cu  0.03414443  0.04918225  0.48174178     1.04300
C121        C  0.21536465  0.09410186  0.41387670     0.92200
C122        C  0.01564504  0.00010483  0.05670734     0.91400
C123        C  0.98975928  0.09384846  0.05801964     0.83500
C124        C  0.23413464  0.99670102  0.41574398     0.89800
C125        C  0.07704476  0.41023905  0.32903691    -0.02900
C126        C  0.10829789  0.40465190  0.37801468     0.06800
C127        C  0.12305849  0.43300345  0.40833636    -0.03000
C128        C  0.12555651  0.46327923  0.38262672    -0.03000
C129        C  0.10407048  0.46701006  0.32935151     0.06900
C130        C  0.07485569  0.44144294  0.30512996    -0.03200
Br131      Br  0.02943160  0.44925014  0.24086903    -0.01700
Br132      Br  0.03099186  0.37737798  0.29870937    -0.01800
Br133      Br  0.15433318  0.50026605  0.42129764    -0.01800
Br134      Br  0.12638714  0.43304944  0.48546635    -0.01700
C135        C  0.18002346  0.18364032  0.39808767    -0.02900
C136        C  0.18314203  0.18983102  0.34391881     0.06800
C137        C  0.18914062  0.16172018  0.30966145    -0.03000
C138        C  0.19705906  0.12972854  0.33159552    -0.03000
C139        C  0.20457583  0.12617287  0.38730250     0.06900
C140        C  0.20220971  0.15435216  0.41953901    -0.03200
Br141      Br  0.25754694  0.15980437  0.47445859    -0.01700
Br142      Br  0.12000354  0.20163030  0.43089808    -0.01800
Br143      Br  0.20114731  0.09117160  0.28654089    -0.01800
Br144      Br  0.18069484  0.16502157  0.23333263    -0.01700
C145        C  0.11977553  0.43946766  0.13826659    -0.02900
C146        C  0.08149876  0.46617153  0.13030923     0.06800
C147        C  0.03074174  0.45934766  0.10801767    -0.03000
C148        C  0.01736077  0.42669497  0.10029071    -0.03000
C149        C  0.05611861  0.40042061  0.10299552     0.06900
C150        C  0.10655514  0.40687662  0.12708740    -0.03200
Br151      Br  0.15530139  0.37094035  0.15259525    -0.01700
Br152      Br  0.19112768  0.44591550  0.16411880    -0.01800
Br153      Br  0.26880370  0.43377433  0.99436224    -0.01800
Br154      Br  0.25973083  0.50300065  0.06151489    -0.01700
C155        C  0.03260015  0.16013889  0.15484244    -0.02900
C156        C  0.00344059  0.18817559  0.13080222     0.06800
C157        C  0.20917297  0.18263048  0.09241210    -0.03000
C158        C  0.19886229  0.15005491  0.07692681    -0.03000
C159        C  0.98819012  0.12386536  0.09121954     0.06900
C160        C  0.02952512  0.12924986  0.13026642    -0.03200
Br161      Br  0.07705277  0.09285973  0.15586263    -0.01700
Br162      Br  0.05553955  0.15789023  0.23028018    -0.01800
Br163      Br  0.13304737  0.14106797  0.53737425    -0.01800
Br164      Br  0.15911512  0.21778326  0.06692587    -0.01700
C165        C  0.11275547  0.65517457  0.31577188    -0.02900
C166        C  0.14150405  0.62525835  0.32795025     0.06800
C167        C  0.18936774  0.62600052  0.36055681    -0.03000
C168        C  0.21092038  0.65616497  0.37717786    -0.03000
C169        C  0.18376878  0.68720335  0.36171577     0.06900
C170        C  0.13348674  0.68556715  0.33119428    -0.03200
Br171      Br  0.08877593  0.72479213  0.31137461    -0.01700
Br172      Br  0.04332731  0.65521330  0.27880794    -0.01800
Br173      Br  0.02252628  0.65083646  0.43234384    -0.01800
Br174      Br  0.22319109  0.58449953  0.38677358    -0.01700
C175        C  0.21061999  0.93816625  0.40917140    -0.02900
C176        C  0.23388815  0.96444183  0.38750203     0.06800
C177        C  0.25889245  0.95863131  0.34121747    -0.03000
C178        C  0.26446147  0.92615242  0.32062909    -0.03000
C179        C  0.23473880  0.90018398  0.33921089     0.06900
C180        C  0.20231525  0.90942729  0.38012797    -0.03200
Br181      Br  0.14253425  0.88594493  0.39707766    -0.01700
Br182      Br  0.21035351  0.93429039  0.48413552    -0.01800
Br183      Br  0.06167854  0.92220077  0.26723185    -0.01800
Br184      Br  0.03562425  0.99577460  0.30776589    -0.01700
C185        C  0.06689613  0.68079326  0.12061313    -0.02900
C186        C  0.10792128  0.68747184  0.08805148     0.06800
C187        C  0.13414637  0.65929178  0.06545442    -0.03000
C188        C  0.12983939  0.62750972  0.08582139    -0.03000
C189        C  0.09515028  0.62268016  0.12417996     0.06900
C190        C  0.05825608  0.64839236  0.13407455    -0.03200
Br191      Br  0.99016143  0.63894653  0.15517617    -0.01700
Br192      Br  0.01575258  0.71429408  0.14257089    -0.01800
Br193      Br  0.16545265  0.58934609  0.05586507    -0.01800
Br194      Br  0.16806493  0.66049779  0.00088833    -0.01700
C195        C  0.24822255  0.95853929  0.12299144    -0.02900
C196        C  0.03035036  0.96878265  0.08459376     0.06800
C197        C  0.06527418  0.94575130  0.06266878    -0.03000
C198        C  0.07305436  0.91362960  0.08251389    -0.03000
C199        C  0.03829109  0.90148082  0.11765753     0.06900
C200        C  0.25181651  0.92528979  0.13883050    -0.03200
Br201      Br  0.20622824  0.91720959  0.19156187    -0.01700
Br202      Br  0.20391836  0.99152157  0.15666046    -0.01800
Br203      Br  0.13470032  0.88845514  0.06229650    -0.01800
Br204      Br  0.09162172  0.95524157  0.99600508    -0.01700
C205        C  0.05019460  0.86577720  0.63948896     0.85500
C206        C  0.00914120  0.84893171  0.66836798    -0.54800
C207        C  0.02706650  0.82156464  0.69736592     0.08400
C208        C  0.08369908  0.80953071  0.68384366     0.19300
C209        C  0.09952663  0.86641643  0.67966577    -0.55500
C210        C  0.11850429  0.83780380  0.70402662     0.08500
C211        C  0.06271966  0.83927402  0.59840767    -0.55000
C212        C  0.08104034  0.80968698  0.61953712     0.09100
H213        H  0.21903918  0.85733472  0.66662330     0.13600
H214        H  0.09706301  0.78592557  0.70338561    -0.00700
H215        H  0.11678018  0.88934302  0.68850062     0.13900
H216        H  0.05511251  0.84345919  0.55568417     0.13700
C217        C  0.10773861  0.72249996  0.56458578     0.85500
C218        C  0.10311947  0.75044469  0.60451651    -0.54800
C219        C  0.09170393  0.78065729  0.58266997     0.08400
C220        C  0.08964170  0.77991364  0.51831436     0.19300
C221        C  0.05866980  0.72587280  0.52473345    -0.55500
C222        C  0.04850718  0.75476921  0.99856862     0.08500
C223        C  0.15330816  0.73363843  0.53459480    -0.55000
C224        C  0.14318856  0.76226903  0.50553381     0.09100
H225        H  0.10881840  0.74607195  0.64719562     0.13600
H226        H  0.08205780  0.80411452  0.99857565    -0.00700
H227        H  0.28030483  0.70541352  0.51311784     0.13900
H228        H  0.18953554  0.71911900  0.53209776     0.13700
C229        C  0.22836592  0.86532048  0.81347445     0.85500
C230        C  0.27115963  0.84979988  0.78116840    -0.54800
C231        C  0.25870722  0.82203807  0.75220902     0.08400
C232        C  0.20520919  0.80932116  0.76666188     0.19300
C233        C  0.17708548  0.86596140  0.77584244    -0.55500
C234        C  0.16408387  0.83761685  0.74929484     0.08500
C235        C  0.22337563  0.83799205  0.85313277    -0.55000
C236        C  0.20967597  0.80874347  0.83089761     0.09100
H237        H  0.05836321  0.86059213  0.77923623     0.13600
H238        H  0.19610203  0.78578140  0.74639118    -0.00700
H239        H  0.15363621  0.88854284  0.77058052     0.13900
H240        H  0.23152014  0.84174803  0.89588178     0.13700
C241        C  0.19878514  0.72169308  0.88512022     0.85500
C242        C  0.19747727  0.74939691  0.84496856    -0.54800
C243        C  0.20353048  0.77988135  0.86704688     0.08400
C244        C  0.21036759  0.77946187  0.93166325     0.19300
C245        C  0.25246403  0.72618979  0.91777843    -0.55500
C246        C  0.25820497  0.75516738  0.94577503     0.08500
C247        C  0.15758693  0.73247732  0.92293638    -0.55000
C248        C  0.16336053  0.76130244  0.95010877     0.09100
H249        H  0.19469018  0.74454987  0.80226634     0.13600
H250        H  0.21474868  0.80362245  0.95170229    -0.00700
H251        H  0.28681428  0.71021414  0.91583953     0.13900
H252        H  0.12888306  0.71565999  0.93287473     0.13700
C253        C  0.01357713  0.22375790  0.64942911     0.85500
C254        C  0.01548786  0.25036892  0.60766429    -0.54800
C255        C  0.02225342  0.28115445  0.62904618     0.08400
C256        C  0.02621151  0.28156786  0.69377207     0.19300
C257        C  0.06576998  0.22727956  0.68442818    -0.55500
C258        C  0.07211093  0.25643839  0.71105642     0.08500
C259        C  0.96971663  0.23648734  0.68212366    -0.55000
C260        C  0.97651437  0.26494285  0.70969728     0.09100
H261        H  0.01298990  0.24495043  0.56511792     0.13600
H262        H  0.03098882  0.30571745  0.71365223    -0.00700
H263        H  0.09658573  0.20802232  0.68750637     0.13900
H264        H  0.18797321  0.22227929  0.68479674     0.13700
C265        C  0.04536678  0.36662052  0.57695270     0.85500
C266        C  0.08974419  0.35297558  0.54481685    -0.54800
C267        C  0.08022788  0.32524852  0.51489392     0.08400
C268        C  0.02763883  0.31051180  0.52865269     0.19300
C269        C  0.99677299  0.36679802  0.53576199    -0.55500
C270        C  0.98574465  0.33794210  0.00988218     0.08500
C271        C  0.03774945  0.33990837  0.61585266    -0.55000
C272        C  0.02898871  0.31003697  0.59299812     0.09100
H273        H  0.12126175  0.36829955  0.53722026     0.13600
H274        H  0.02069974  0.28666935  0.00832205    -0.00700
H275        H  0.21052298  0.38828463  0.53335347     0.13900
H276        H  0.03960700  0.34485270  0.65844883     0.13700
C277        C  0.17457036  0.22526946  0.82300031     0.85500
C278        C  0.17163187  0.25338565  0.86333393    -0.54800
C279        C  0.15884261  0.28351876  0.84149446     0.08400
C280        C  0.15395097  0.28250538  0.77711299     0.19300
C281        C  0.12269551  0.22877145  0.78798697    -0.55500
C282        C  0.11202713  0.25720737  0.76031889     0.08500
C283        C  0.21726372  0.23568971  0.78934399    -0.55000
C284        C  0.20668656  0.26485299  0.76198391     0.09100
H285        H  0.18040025  0.24981873  0.90587439     0.13600
H286        H  0.14509515  0.30653049  0.75708826    -0.00700
H287        H  0.09698949  0.20879299  0.78366582     0.13900
H288        H  0.99848861  0.21846341  0.78514746     0.13700
C289        C  0.12424029  0.36962979  0.89887217     0.85500
C290        C  0.08347293  0.35607635  0.93189941    -0.54800
C291        C  0.09806203  0.32719233  0.95862478     0.08400
C292        C  0.15234073  0.31256133  0.94269313     0.19300
C293        C  0.17625583  0.36830458  0.93509666    -0.55500
C294        C  0.19074338  0.33941413  0.96087208     0.08500
C295        C  0.13477946  0.34296428  0.85744684    -0.55000
C296        C  0.14868208  0.31264481  0.87836831     0.09100
H297        H  0.05029919  0.37184355  0.94179392     0.13600
H298        H  0.16377736  0.28870484  0.96231110    -0.00700
H299        H  0.19998818  0.38933402  0.94041313     0.13900
H300        H  0.13282429  0.34799669  0.81502481     0.13700
O301        O  0.13567957  0.50788303  0.66930834    -0.74000
O302        O  0.16403830  0.57605977  0.78139593    -0.74900
O303        O  0.14960365  0.50535962  0.78159487    -0.63600
O304        O  0.14434202  0.57754386  0.67046584    -0.72000
O305        O  0.05893849  0.58308645  0.67617543    -0.71500
O306        O  0.06517136  0.51642916  0.79029784    -0.62800
O307        O  0.07937156  0.58671471  0.78777464    -0.75300
O308        O  0.05111533  0.51364267  0.67915774    -0.74100
Cu309      Cu  0.15145163  0.54141062  0.72579349     1.04600
Cu310      Cu  0.06077470  0.55034618  0.73360851     1.04300
C311        C  0.08960864  0.49809660  0.65912534     0.92200
C312        C  0.12716393  0.59412551  0.79902712     0.91400
C313        C  0.10696730  0.49822475  0.80032859     0.83500
C314        C  0.09956613  0.59240760  0.65712817     0.89800
O315        O  0.17810063  0.08036412  0.93365120    -0.74000
O316        O  0.21400072  0.00885867  0.54261688    -0.74900
O317        O  0.19706447  0.07893805  0.54495746    -0.63600
O318        O  0.19172874  0.00852139  0.93293953    -0.72000
O319        O  0.02873936  0.01153087  0.92782564    -0.71500
O320        O  0.03176257  0.08529569  0.53660083    -0.62800
O321        O  0.05125349  0.01617373  0.53913294    -0.75300
O322        O  0.01317830  0.08303321  0.92545050    -0.74100
Cu323      Cu  0.19217308  0.04409766  0.98859613     1.04600
Cu324      Cu  0.03414514  0.04918227  0.98174220     1.04300
C325        C  0.21536530  0.09410205  0.91387766     0.92200
C326        C  0.01564473  0.00010500  0.55670735     0.91400
C327        C  0.98975922  0.09384850  0.55801948     0.83500
C328        C  0.23413542  0.99670102  0.91574437     0.89800
C329        C  0.07704327  0.41023919  0.82903690    -0.02900
C330        C  0.10829599  0.40465217  0.87801485     0.06800
C331        C  0.12305675  0.43300377  0.90833628    -0.03000
C332        C  0.12555537  0.46327938  0.88262626    -0.03000
C333        C  0.10406995  0.46700998  0.82935080     0.06900
C334        C  0.07485519  0.44144284  0.80512933    -0.03200
Br335      Br  0.02943288  0.44924956  0.74086721    -0.01700
Br336      Br  0.03098959  0.37737836  0.79871003    -0.01800
Br337      Br  0.15433228  0.50026623  0.92129684    -0.01800
Br338      Br  0.12638473  0.43305007  0.98546625    -0.01700
C339        C  0.18002302  0.18364048  0.89808850    -0.02900
C340        C  0.18314273  0.18983131  0.84391986     0.06800
C341        C  0.18914230  0.16172054  0.80966258    -0.03000
C342        C  0.19706094  0.12972890  0.83159659    -0.03000
C343        C  0.20457632  0.12617312  0.88730359     0.06900
C344        C  0.20220934  0.15435237  0.91954015    -0.03200
Br345      Br  0.25754728  0.15980500  0.97445887    -0.01700
Br346      Br  0.12000168  0.20162993  0.93089714    -0.01800
Br347      Br  0.20115121  0.09117205  0.78654195    -0.01800
Br348      Br  0.18069680  0.16502194  0.73333380    -0.01700
C349        C  0.11977758  0.43946807  0.63826436    -0.02900
C350        C  0.08149994  0.46617153  0.63030779     0.06800
C351        C  0.03074286  0.45934705  0.60801715    -0.03000
C352        C  0.01736275  0.42669416  0.60029065    -0.03000
C353        C  0.05612127  0.40042022  0.60299474     0.06900
C354        C  0.10655792  0.40687684  0.62708559    -0.03200
Br355      Br  0.15530515  0.37094111  0.65259330    -0.01700
Br356      Br  0.19112997  0.44591678  0.66411472    -0.01800
Br357      Br  0.26880713  0.43377341  0.49436108    -0.01800
Br358      Br  0.25973933  0.50300054  0.56151119    -0.01700
C359        C  0.03260030  0.16013867  0.65484289    -0.02900
C360        C  0.00344082  0.18817552  0.63080280     0.06800
C361        C  0.20917273  0.18263082  0.59241265    -0.03000
C362        C  0.19886186  0.15005534  0.57692690    -0.03000
C363        C  0.98819033  0.12386540  0.59121943     0.06900
C364        C  0.02952508  0.12924967  0.63026667    -0.03200
Br365      Br  0.07705206  0.09285920  0.65586291    -0.01700
Br366      Br  0.05554113  0.15788986  0.73028038    -0.01800
Br367      Br  0.13304798  0.14106717  0.03737400    -0.01800
Br368      Br  0.15911488  0.21778382  0.56692704    -0.01700
C369        C  0.11275474  0.65517426  0.81577240    -0.02900
C370        C  0.14150332  0.62525800  0.82795029     0.06800
C371        C  0.18936742  0.62600008  0.86055617    -0.03000
C372        C  0.21092068  0.65616448  0.87717648    -0.03000
C373        C  0.18376893  0.68720295  0.86171503     0.06900
C374        C  0.13348656  0.68556682  0.83119408    -0.03200
Br375      Br  0.08877611  0.72479190  0.81137387    -0.01700
Br376      Br  0.04332567  0.65521303  0.77881060    -0.01800
Br377      Br  0.02252176  0.65083666  0.93234746    -0.01800
Br378      Br  0.22319027  0.58449901  0.88677339    -0.01700
C379        C  0.21062081  0.93816620  0.90917216    -0.02900
C380        C  0.23388885  0.96444176  0.88750256     0.06800
C381        C  0.25889294  0.95863118  0.84121792    -0.03000
C382        C  0.26446191  0.92615225  0.82062966    -0.03000
C383        C  0.23473928  0.90018381  0.83921157     0.06900
C384        C  0.20231605  0.90942715  0.88012889    -0.03200
Br385      Br  0.14253509  0.88594484  0.89707877    -0.01700
Br386      Br  0.21035351  0.93429079  0.98413628    -0.01800
Br387      Br  0.06167813  0.92220024  0.76723142    -0.01800
Br388      Br  0.03562785  0.99577399  0.80776737    -0.01700
C389        C  0.06689709  0.68079386  0.62061449    -0.02900
C390        C  0.10792188  0.68747249  0.58805241     0.06800
C391        C  0.13414665  0.65929246  0.56545499    -0.03000
C392        C  0.12983977  0.62751034  0.58582172    -0.03000
C393        C  0.09515075  0.62268066  0.62418033     0.06900
C394        C  0.05825693  0.64839292  0.63407563    -0.03200
Br395      Br  0.99016241  0.63894719  0.65517768    -0.01700
Br396      Br  0.01575394  0.71429461  0.64257312    -0.01800
Br397      Br  0.16545360  0.58934691  0.55586536    -0.01800
Br398      Br  0.16806444  0.66049865  0.50088858    -0.01700
C399        C  0.24822070  0.95853906  0.62299066    -0.02900
C400        C  0.03035017  0.96878296  0.58459400     0.06800
C401        C  0.06527408  0.94575162  0.56266919    -0.03000
C402        C  0.07305419  0.91362996  0.58251444    -0.03000
C403        C  0.03829085  0.90148123  0.61765811     0.06900
C404        C  0.25181567  0.92528964  0.63883035    -0.03200
Br405      Br  0.20622877  0.91720935  0.69156291    -0.01700
Br406      Br  0.20391510  0.99152096  0.65665877    -0.01800
Br407      Br  0.13470014  0.88845550  0.56229714    -0.01800
Br408      Br  0.09162208  0.95524191  0.49600566    -0.01700
C409        C  0.30075528  0.86557997  0.13914684     0.85500
C410        C  0.25938608  0.84853253  0.16723119    -0.54800
C411        C  0.27716055  0.82122765  0.19645128     0.08400
C412        C  0.33407235  0.80925759  0.18343594     0.19300
C413        C  0.34968728  0.86622210  0.17994381    -0.55500
C414        C  0.36887019  0.83758223  0.20429196     0.08500
C415        C  0.31383131  0.83917076  0.09802919    -0.55000
C416        C  0.33153861  0.80941185  0.11900129     0.09100
H417        H  0.46896810  0.85780308  0.16848348     0.13600
H418        H  0.34730210  0.78557972  0.20282748    -0.00700
H419        H  0.36597515  0.88913108  0.18946292     0.13900
H420        H  0.30617679  0.84337629  0.05531263     0.13700
C421        C  0.35337355  0.72168126  0.06323892     0.85500
C422        C  0.34929928  0.74964567  0.10333271    -0.54800
C423        C  0.34007550  0.78009104  0.08175564     0.08400
C424        C  0.33858269  0.77938756  0.01735854     0.19300
C425        C  0.30507726  0.72582476  0.02274098    -0.55500
C426        C  0.29658298  0.75478536  0.49655752     0.08500
C427        C  0.40005165  0.73202562  0.03383040    -0.55000
C428        C  0.39178615  0.76106494  0.00533674     0.09100
H429        H  0.35396544  0.74514771  0.14599696     0.13600
H430        H  0.33224296  0.80369808  0.49778821    -0.00700
H431        H  0.53430490  0.70518827  0.01594649     0.13900
H432        H  0.43561088  0.71668128  0.03143907     0.13700
C433        C  0.47882388  0.86546260  0.31450195     0.85500
C434        C  0.52170482  0.84991463  0.28232997    -0.54800
C435        C  0.50915759  0.82216603  0.25333596     0.08400
C436        C  0.45577507  0.80938667  0.26806378     0.19300
C437        C  0.42764105  0.86602185  0.27653283    -0.55500
C438        C  0.41438784  0.83753851  0.25024794     0.08500
C439        C  0.47412004  0.83823924  0.35439853    -0.55000
C440        C  0.46072033  0.80895633  0.33248619     0.09100
H441        H  0.30775374  0.86046512  0.27799310     0.13600
H442        H  0.44678425  0.78578652  0.24794910    -0.00700
H443        H  0.40523127  0.88861378  0.27041833     0.13900
H444        H  0.48290115  0.84187220  0.39713590     0.13700
C445        C  0.45135409  0.72197294  0.38632973     0.85500
C446        C  0.45187041  0.74962931  0.34674024    -0.54800
C447        C  0.45612444  0.78004252  0.36903757     0.08400
C448        C  0.46148124  0.77935999  0.43382686     0.19300
C449        C  0.50398558  0.72599236  0.42052039    -0.55500
C450        C  0.50915000  0.75486299  0.44873832     0.08500
C451        C  0.40862357  0.73247326  0.42252272    -0.55000
C452        C  0.41381663  0.76092151  0.45069679     0.09100
H453        H  0.45124175  0.74479290  0.30415287     0.13600
H454        H  0.46532280  0.80348582  0.45416474    -0.00700
H455        H  0.53811927  0.70966873  0.41901288     0.13900
H456        H  0.37908600  0.71573351  0.43057587     0.13700
C457        C  0.26471285  0.22440276  0.14676081     0.85500
C458        C  0.26750327  0.25104513  0.10515916    -0.54800
C459        C  0.27330694  0.28183991  0.12659294     0.08400
C460        C  0.27685158  0.28208856  0.19151907     0.19300
C461        C  0.31637119  0.22772605  0.18289429    -0.55500
C462        C  0.32244999  0.25680616  0.20977115     0.08500
C463        C  0.22013786  0.23722579  0.17874408    -0.55000
C464        C  0.22681002  0.26558828  0.20679505     0.09100
H465        H  0.26534171  0.24581250  0.06254091     0.13600
H466        H  0.28167720  0.30619812  0.21152944    -0.00700
H467        H  0.34693034  0.20832172  0.18685628     0.13900
H468        H  0.43778434  0.22152457  0.18875327     0.13700
C469        C  0.28948042  0.36891427  0.07555354     0.85500
C470        C  0.33543639  0.35687123  0.04465695    -0.54800
C471        C  0.32860616  0.32920425  0.01404668     0.08400
C472        C  0.27696842  0.31268453  0.02607227     0.19300
C473        C  0.23954724  0.36786458  0.03678706    -0.55500
C474        C  0.23280996  0.33937820  0.50822638     0.08500
C475        C  0.28159517  0.34137965  0.11341694    -0.55000
C476        C  0.27757712  0.31121579  0.09037547     0.09100
H477        H  0.36676690  0.37296995  0.03925739     0.13600
H478        H  0.27211214  0.28885774  0.50495554    -0.00700
H479        H  0.47581844  0.38930264  0.02367317     0.13900
H480        H  0.27672147  0.34606601  0.15513052     0.13700
C481        C  0.42213037  0.22528953  0.32489431     0.85500
C482        C  0.41839797  0.25369056  0.36475909    -0.54800
C483        C  0.40641111  0.28380332  0.34249530     0.08400
C484        C  0.40287506  0.28248164  0.27828200     0.19300
C485        C  0.37100954  0.22877345  0.28828930    -0.55500
C486        C  0.36108080  0.25727413  0.26036722     0.08500
C487        C  0.46582168  0.23558982  0.29238724    -0.55000
C488        C  0.45595200  0.26469076  0.26462563     0.09100
H489        H  0.42765899  0.25055945  0.40728969     0.13600
H490        H  0.39476862  0.30648502  0.25811426    -0.00700
H491        H  0.34560354  0.20865989  0.28284975     0.13900
H492        H  0.24969944  0.21863167  0.28122922     0.13700
C493        C  0.38183243  0.37151810  0.39924455     0.85500
C494        C  0.33949695  0.36039184  0.43287713    -0.54800
C495        C  0.34994356  0.33110401  0.45926819     0.08400
C496        C  0.40249443  0.31375188  0.44353953     0.19300
C497        C  0.43431655  0.36731059  0.43417378    -0.55500
C498        C  0.44470424  0.33858683  0.46122530     0.08500
C499        C  0.38758649  0.34426361  0.35765395    -0.55000
C500        C  0.39838758  0.31353345  0.37892772     0.09100
H501        H  0.30674014  0.37701323  0.44123887     0.13600
H502        H  0.41091668  0.28967787  0.46338073    -0.00700
H503        H  0.46238033  0.38613896  0.43671101     0.13900
H504        H  0.38452463  0.34919423  0.31510152     0.13700
O505        O  0.37672809  0.50655263  0.17634664    -0.74000
O506        O  0.41439476  0.57855623  0.27758529    -0.74900
O507        O  0.39972472  0.50932298  0.28647186    -0.63600
O508        O  0.38758179  0.57624619  0.16804993    -0.72000
O509        O  0.30339715  0.58348325  0.17910058    -0.71500
O510        O  0.31637610  0.52099417  0.29961742    -0.62800
O511        O  0.33082366  0.58965752  0.28953877    -0.75300
O512        O  0.29265391  0.51451604  0.19017488    -0.74100
Cu513      Cu  0.39758502  0.54234259  0.22674810     1.04600
Cu514      Cu  0.30795690  0.55263596  0.23990800     1.04300
C515        C  0.32983502  0.49747825  0.17075035     0.92200
C516        C  0.37896945  0.59670211  0.29741387     0.91400
C517        C  0.35850036  0.50298298  0.30848013     0.83500
C518        C  0.34300853  0.59177948  0.15693274     0.89800
O519        O  0.42878648  0.08002160  0.43679730    -0.74000
O520        O  0.46707733  0.00861450  0.04489682    -0.74900
O521        O  0.44853070  0.07811985  0.04783103    -0.63600
O522        O  0.44378567  0.00824872  0.43539967    -0.72000
O523        O  0.27694518  0.01124805  0.42618166    -0.71500
O524        O  0.28050111  0.08534624  0.03374505    -0.62800
O525        O  0.29832150  0.01611050  0.03758886    -0.75300
O526        O  0.26271165  0.08257366  0.42265311    -0.74100
Cu527      Cu  0.44405473  0.04363811  0.49128669     1.04600
Cu528      Cu  0.28248540  0.04896040  0.47958797     1.04300
C529        C  0.46561567  0.09423412  0.41708452     0.92200
C530        C  0.26244338  0.00007787  0.05478257     0.91400
C531        C  0.23866909  0.09437645  0.05505380     0.83500
C532        C  0.48612219  0.99669279  0.41775909     0.89800
C533        C  0.32752878  0.41625045  0.34128816    -0.02900
C534        C  0.37006042  0.40733437  0.37966776     0.06800
C535        C  0.39773963  0.43371371  0.40440177    -0.03000
C536        C  0.39829616  0.46368432  0.37849891    -0.03000
C537        C  0.35777783  0.47227776  0.33906849     0.06900
C538        C  0.31907304  0.44937367  0.32492055    -0.03200
Br539      Br  0.25556757  0.46256082  0.28214558    -0.01700
Br540      Br  0.27939097  0.38427739  0.31240726    -0.01800
Br541      Br  0.45014919  0.49430717  0.40308551    -0.01800
Br542      Br  0.40860209  0.43730815  0.48065793    -0.01700
C543        C  0.42909512  0.18380508  0.40096703    -0.02900
C544        C  0.43064127  0.18980234  0.34640504     0.06800
C545        C  0.43703497  0.16148206  0.31256852    -0.03000
C546        C  0.44528949  0.12957092  0.33484972    -0.03000
C547        C  0.45396511  0.12626533  0.39048705     0.06900
C548        C  0.45187924  0.15460410  0.42238388    -0.03200
Br549      Br  0.50659961  0.16017614  0.47788260    -0.01700
Br550      Br  0.37158255  0.20262545  0.43677034    -0.01800
Br551      Br  0.44852727  0.09069117  0.29034483    -0.01800
Br552      Br  0.43030301  0.16431269  0.23632735    -0.01700
C553        C  0.34314708  0.43662033  0.17083787    -0.02900
C554        C  0.31990856  0.46539401  0.14586826     0.06800
C555        C  0.29044280  0.46331898  0.09620761    -0.03000
C556        C  0.28481193  0.43254600  0.07122543    -0.03000
C557        C  0.29950369  0.40285493  0.10051387     0.06900
C558        C  0.33231530  0.40548858  0.14943699    -0.03200
Br559      Br  0.37218223  0.36783343  0.18352819    -0.01700
Br560      Br  0.39573308  0.43937751  0.23079563    -0.01800
Br561      Br  0.44662582  0.41804756  0.10980317    -0.01800
Br562      Br  0.47789383  0.49429076  0.08926474    -0.01700
C563        C  0.28356044  0.16068965  0.15113424    -0.02900
C564        C  0.25458377  0.18890331  0.12751524     0.06800
C565        C  0.45781610  0.18163032  0.09622063    -0.03000
C566        C  0.44855587  0.14907550  0.07984409    -0.03000
C567        C  0.23804683  0.12455160  0.08807619     0.06900
C568        C  0.28028648  0.12994463  0.12613399    -0.03200
Br569      Br  0.32933737  0.09386804  0.14993527    -0.01700
Br570      Br  0.30545088  0.15766726  0.22665615    -0.01800
Br571      Br  0.38385709  0.13982564  0.53815770    -0.01800
Br572      Br  0.40579166  0.21627977  0.07328864    -0.01700
C573        C  0.36660513  0.65725865  0.31378111    -0.02900
C574        C  0.39479191  0.62725989  0.32582020     0.06800
C575        C  0.44223777  0.62717752  0.35913554    -0.03000
C576        C  0.46273882  0.65692914  0.37881886    -0.03000
C577        C  0.43715936  0.68807933  0.36175197     0.06900
C578        C  0.38827562  0.68722019  0.32862190    -0.03200
Br579      Br  0.34593946  0.72680556  0.30507509    -0.01700
Br580      Br  0.29610420  0.65807970  0.27942229    -0.01800
Br581      Br  0.27613923  0.65063652  0.42310986    -0.01800
Br582      Br  0.47658907  0.58521698  0.38219299    -0.01700
C583        C  0.46294121  0.93804316  0.41150095    -0.02900
C584        C  0.48591700  0.96435947  0.38952443     0.06800
C585        C  0.50974077  0.95870537  0.34244391    -0.03000
C586        C  0.51419744  0.92637845  0.32091173    -0.03000
C587        C  0.48529697  0.90031114  0.34032678     0.06900
C588        C  0.45415906  0.90930115  0.38246112    -0.03200
Br589      Br  0.39472163  0.88575986  0.40033819    -0.01700
Br590      Br  0.46059674  0.93511064  0.48643878    -0.01800
Br591      Br  0.31481552  0.92188549  0.26988518    -0.01800
Br592      Br  0.28508992  0.99562565  0.30649261    -0.01700
C593        C  0.31068820  0.68038684  0.11908209    -0.02900
C594        C  0.35184518  0.68665897  0.08649521     0.06800
C595        C  0.37729586  0.65828019  0.06398129    -0.03000
C596        C  0.37331201  0.62667866  0.08514334    -0.03000
C597        C  0.33845699  0.62201246  0.12359030     0.06900
C598        C  0.30225935  0.64814239  0.13402988    -0.03200
Br599      Br  0.23655254  0.63982638  0.16172606    -0.01700
Br600      Br  0.25961624  0.71438625  0.13949420    -0.01800
Br601      Br  0.40981038  0.58863673  0.05582900    -0.01800
Br602      Br  0.40764838  0.65911227  0.99729762    -0.01700
C603        C  0.50164532  0.95916973  0.12514548    -0.02900
C604        C  0.27701509  0.96856275  0.08267039     0.06800
C605        C  0.31343165  0.94597462  0.06177051    -0.03000
C606        C  0.32231049  0.91392859  0.08204430    -0.03000
C607        C  0.28823550  0.90139316  0.11746444     0.06900
C608        C  0.50258609  0.92574832  0.13921062    -0.03200
Br609      Br  0.45322043  0.91796363  0.18839452    -0.01700
Br610      Br  0.46065092  0.99295789  0.16091532    -0.01800
Br611      Br  0.38448949  0.88926687  0.06212187    -0.01800
Br612      Br  0.34103094  0.95587368  0.99585706    -0.01700
C613        C  0.30075514  0.86557997  0.63914694     0.85500
C614        C  0.25938595  0.84853242  0.66723120    -0.54800
C615        C  0.27716057  0.82122755  0.69645131     0.08400
C616        C  0.33407245  0.80925761  0.68343592     0.19300
C617        C  0.34968707  0.86622216  0.67994396    -0.55500
C618        C  0.36887018  0.83758231  0.70429203     0.08500
C619        C  0.31383135  0.83917082  0.59802923    -0.55000
C620        C  0.33153878  0.80941188  0.61900125     0.09100
H621        H  0.46896863  0.85780321  0.66848393     0.13600
H622        H  0.34730234  0.78557963  0.70282742    -0.00700
H623        H  0.36597482  0.88913121  0.68946317     0.13900
H624        H  0.30617695  0.84337640  0.55531270     0.13700
C625        C  0.35337436  0.72168133  0.56323834     0.85500
C626        C  0.34929991  0.74964566  0.60333235    -0.54800
C627        C  0.34007595  0.78009111  0.58175545     0.08400
C628        C  0.33858314  0.77938770  0.51735832     0.19300
C629        C  0.30507798  0.72582484  0.52274050    -0.55500
C630        C  0.29658246  0.75478521  0.99655779     0.08500
C631        C  0.40005233  0.73202586  0.53382995    -0.55000
C632        C  0.39178661  0.76106514  0.50533631     0.09100
H633        H  0.35396606  0.74514762  0.64599663     0.13600
H634        H  0.33224263  0.80369780  0.99778842    -0.00700
H635        H  0.53430538  0.70518869  0.51594725     0.13900
H636        H  0.43561177  0.71668165  0.53143872     0.13700
C637        C  0.47882400  0.86546253  0.81450222     0.85500
C638        C  0.52170501  0.84991447  0.78233053    -0.54800
C639        C  0.50915769  0.82216601  0.75333629     0.08400
C640        C  0.45577498  0.80938672  0.76806390     0.19300
C641        C  0.42764126  0.86602196  0.77653284    -0.55500
C642        C  0.41438792  0.83753860  0.75024796     0.08500
C643        C  0.47411985  0.83823920  0.85439878    -0.55000
C644        C  0.46071999  0.80895634  0.83248633     0.09100
H645        H  0.30775415  0.86046502  0.77799331     0.13600
H646        H  0.44678419  0.78578662  0.74794919    -0.00700
H647        H  0.40523199  0.88861369  0.77041830     0.13900
H648        H  0.48290087  0.84187212  0.89713603     0.13700
C649        C  0.45135286  0.72197302  0.88632964     0.85500
C650        C  0.45186905  0.74962944  0.84674017    -0.54800
C651        C  0.45612363  0.78004258  0.86903772     0.08400
C652        C  0.46148080  0.77935989  0.93382702     0.19300
C653        C  0.50398473  0.72599220  0.92051981    -0.55500
C654        C  0.50914950  0.75486276  0.94873797     0.08500
C655        C  0.40862284  0.73247329  0.92252305    -0.55000
C656        C  0.41381619  0.76092140  0.95069724     0.09100
H657        H  0.45124000  0.74479312  0.80415322     0.13600
H658        H  0.46532267  0.80348565  0.95416503    -0.00700
H659        H  0.53811811  0.70966843  0.91901190     0.13900
H660        H  0.37908506  0.71573340  0.93057643     0.13700
C661        C  0.26471288  0.22440280  0.64676169     0.85500
C662        C  0.26750341  0.25104507  0.60515991    -0.54800
C663        C  0.27330728  0.28183985  0.62659355     0.08400
C664        C  0.27685184  0.28208867  0.69151970     0.19300
C665        C  0.31637119  0.22772609  0.68289512    -0.55500
C666        C  0.32245014  0.25680619  0.70977186     0.08500
C667        C  0.22013794  0.23722595  0.67874508    -0.55000
C668        C  0.22681026  0.26558849  0.70679594     0.09100
H669        H  0.26534197  0.24581237  0.56254202     0.13600
H670        H  0.28167760  0.30619820  0.71152988    -0.00700
H671        H  0.34693073  0.20832167  0.68685696     0.13900
H672        H  0.43778390  0.22152527  0.68875351     0.13700
C673        C  0.28948244  0.36891380  0.57555350     0.85500
C674        C  0.33543854  0.35687030  0.54465745    -0.54800
C675        C  0.32860808  0.32920339  0.51404716     0.08400
C676        C  0.27696995  0.31268399  0.52607257     0.19300
C677        C  0.23954949  0.36786422  0.53678666    -0.55500
C678        C  0.23280800  0.33937856  0.00822660     0.08500
C679        C  0.28159644  0.34137938  0.61341699    -0.55000
C680        C  0.27757813  0.31121551  0.59037579     0.09100
H681        H  0.36676958  0.37296893  0.53925796     0.13600
H682        H  0.27211079  0.28885827  0.00495504    -0.00700
H683        H  0.47582061  0.38930235  0.52367234     0.13900
H684        H  0.27672223  0.34606594  0.65513057     0.13700
C685        C  0.42213105  0.22528999  0.82489488     0.85500
C686        C  0.41839832  0.25369107  0.86475959    -0.54800
C687        C  0.40641100  0.28380377  0.84249565     0.08400
C688        C  0.40287507  0.28248197  0.77828237     0.19300
C689        C  0.37101015  0.22877361  0.78828985    -0.55500
C690        C  0.36108114  0.25727429  0.76036772     0.08500
C691        C  0.46582225  0.23559043  0.79238773    -0.55000
C692        C  0.45595221  0.26469132  0.76462597     0.09100
H693        H  0.42765934  0.25056007  0.90729025     0.13600
H694        H  0.39476830  0.30648537  0.75811446    -0.00700
H695        H  0.34560465  0.20866007  0.78285035     0.13900
H696        H  0.24969994  0.21863253  0.78123085     0.13700
C697        C  0.38183138  0.37151861  0.89924434     0.85500
C698        C  0.33949550  0.36039251  0.93287661    -0.54800
C699        C  0.34994186  0.33110469  0.95926781     0.08400
C700        C  0.40249284  0.31375242  0.94353965     0.19300
C701        C  0.43431522  0.36731109  0.93417416    -0.55500
C702        C  0.44470258  0.33858732  0.96122573     0.08500
C703        C  0.38758575  0.34426404  0.85765395    -0.55000
C704        C  0.39838668  0.31353391  0.87892786     0.09100
H705        H  0.30673892  0.37701402  0.94123821     0.13600
H706        H  0.41091480  0.28967845  0.96338089    -0.00700
H707        H  0.46237897  0.38613937  0.93671173     0.13900
H708        H  0.38452432  0.34919463  0.81510142     0.13700
O709        O  0.37673089  0.50655231  0.67634606    -0.74000
O710        O  0.41439483  0.57855681  0.77758370    -0.74900
O711        O  0.39972563  0.50932342  0.78647127    -0.63600
O712        O  0.38758377  0.57624590  0.66804818    -0.72000
O713        O  0.30339878  0.58348253  0.67909746    -0.71500
O714        O  0.31637672  0.52099453  0.79961566    -0.62800
O715        O  0.33082333  0.58965793  0.78953569    -0.75300
O716        O  0.29265635  0.51451550  0.69017305    -0.74100
Cu717      Cu  0.39758649  0.54234271  0.72674703     1.04600
Cu718      Cu  0.30795799  0.55263582  0.73990549     1.04300
C719        C  0.32983795  0.49747776  0.67074930     0.92200
C720        C  0.37896898  0.59670267  0.79741151     0.91400
C721        C  0.35850099  0.50298342  0.80847906     0.83500
C722        C  0.34301040  0.59177894  0.65693026     0.89800
O723        O  0.42878695  0.08002159  0.93679725    -0.74000
O724        O  0.46707690  0.00861471  0.54489694    -0.74900
O725        O  0.44853032  0.07812007  0.54783100    -0.63600
O726        O  0.44378622  0.00824869  0.93539948    -0.72000
O727        O  0.27694599  0.01124805  0.92618192    -0.71500
O728        O  0.28050014  0.08534628  0.53374456    -0.62800
O729        O  0.29832013  0.01611055  0.53758866    -0.75300
O730        O  0.26271230  0.08257376  0.92265357    -0.74100
Cu731      Cu  0.44405522  0.04363799  0.99128660     1.04600
Cu732      Cu  0.28248638  0.04896040  0.97958830     1.04300
C733        C  0.46561614  0.09423430  0.91708475     0.92200
C734        C  0.26244189  0.00007793  0.55478220     0.91400
C735        C  0.23866814  0.09437672  0.55505314     0.83500
C736        C  0.48612270  0.99669287  0.91775870     0.89800
C737        C  0.32752826  0.41625105  0.84128751    -0.02900
C738        C  0.37005975  0.40733484  0.87966722     0.06800
C739        C  0.39773944  0.43371402  0.90440088    -0.03000
C740        C  0.39829669  0.46368440  0.87849758    -0.03000
C741        C  0.35777811  0.47227821  0.83906754     0.06900
C742        C  0.31907292  0.44937428  0.82491974    -0.03200
Br743      Br  0.25556798  0.46256143  0.78214381    -0.01700
Br744      Br  0.27939044  0.38427807  0.81240640    -0.01800
Br745      Br  0.45015179  0.49430619  0.90308275    -0.01800
Br746      Br  0.40860040  0.43730905  0.98065705    -0.01700
C747        C  0.42909593  0.18380544  0.90096759    -0.02900
C748        C  0.43064220  0.18980277  0.84640564     0.06800
C749        C  0.43703579  0.16148251  0.81256907    -0.03000
C750        C  0.44528989  0.12957130  0.83485011    -0.03000
C751        C  0.45396548  0.12626559  0.89048742     0.06900
C752        C  0.45187974  0.15460434  0.92238433    -0.03200
Br753      Br  0.50659981  0.16017606  0.97788341    -0.01700
Br754      Br  0.37158328  0.20262581  0.93677072    -0.01800
Br755      Br  0.44852725  0.09069158  0.79034509    -0.01800
Br756      Br  0.43030455  0.16431332  0.73632801    -0.01700
C757        C  0.34314897  0.43661984  0.67083785    -0.02900
C758        C  0.31991192  0.46539354  0.64586722     0.06800
C759        C  0.29044773  0.46331857  0.59620576    -0.03000
C760        C  0.28481593  0.43254547  0.57122420    -0.03000
C761        C  0.29950610  0.40285447  0.60051349     0.06900
C762        C  0.33231683  0.40548810  0.64943722    -0.03200
Br763      Br  0.37218248  0.36783289  0.68352969    -0.01700
Br764      Br  0.39573404  0.43937696  0.73079638    -0.01800
Br765      Br  0.44662732  0.41804573  0.60980387    -0.01800
Br766      Br  0.47789206  0.49428954  0.58926505    -0.01700
C767        C  0.28356068  0.16068962  0.65113388    -0.02900
C768        C  0.25458364  0.18890343  0.62751576     0.06800
C769        C  0.45781583  0.18163059  0.59622079    -0.03000
C770        C  0.44855567  0.14907585  0.57984379    -0.03000
C771        C  0.23804630  0.12455188  0.58807574     0.06900
C772        C  0.28028641  0.12994474  0.62613314    -0.03200
Br773      Br  0.32933787  0.09386814  0.64993317    -0.01700
Br774      Br  0.30545271  0.15766671  0.72665543    -0.01800
Br775      Br  0.38385710  0.13982521  0.03815848    -0.01800
Br776      Br  0.40579153  0.21628013  0.57328884    -0.01700
C777        C  0.36660405  0.65725917  0.81377936    -0.02900
C778        C  0.39479087  0.62726038  0.82581831     0.06800
C779        C  0.44223608  0.62717787  0.85913472    -0.03000
C780        C  0.46273670  0.65692938  0.87881896    -0.03000
C781        C  0.43715768  0.68807959  0.86175181     0.06900
C782        C  0.38827405  0.68722065  0.82862150    -0.03200
Br783      Br  0.34593728  0.72680619  0.80507654    -0.01700
Br784      Br  0.29610385  0.65808030  0.77941874    -0.01800
Br785      Br  0.27614106  0.65063571  0.92310581    -0.01800
Br786      Br  0.47658733  0.58521730  0.88219208    -0.01700
C787        C  0.46294135  0.93804333  0.91150074    -0.02900
C788        C  0.48591747  0.96435949  0.88952417     0.06800
C789        C  0.50974156  0.95870518  0.84244389    -0.03000
C790        C  0.51419783  0.92637824  0.82091177    -0.03000
C791        C  0.48529727  0.90031104  0.84032699     0.06900
C792        C  0.45415936  0.90930120  0.88246124    -0.03200
Br793      Br  0.39472191  0.88575998  0.90033848    -0.01700
Br794      Br  0.46059618  0.93511120  0.98643846    -0.01800
Br795      Br  0.31481600  0.92188525  0.76988587    -0.01800
Br796      Br  0.28508992  0.99562551  0.80649255    -0.01700
C797        C  0.31068960  0.68038634  0.61908078    -0.02900
C798        C  0.35184649  0.68665886  0.58649409     0.06800
C799        C  0.37729770  0.65828030  0.56397995    -0.03000
C800        C  0.37331430  0.62667863  0.58514171    -0.03000
C801        C  0.33845889  0.62201202  0.62358810     0.06900
C802        C  0.30226092  0.64814175  0.63402780    -0.03200
Br803      Br  0.23655396  0.63982530  0.66172318    -0.01700
Br804      Br  0.25961750  0.71438545  0.63949366    -0.01800
Br805      Br  0.40981444  0.58863712  0.55582809    -0.01800
Br806      Br  0.40765063  0.65911265  0.49729650    -0.01700
C807        C  0.50164453  0.95917003  0.62514551    -0.02900
C808        C  0.27701351  0.96856273  0.58266995     0.06800
C809        C  0.31343088  0.94597484  0.56177068    -0.03000
C810        C  0.32231005  0.91392882  0.58204457    -0.03000
C811        C  0.28823511  0.90139319  0.61746457     0.06900
C812        C  0.50258564  0.92574864  0.63921082    -0.03200
Br813      Br  0.45321988  0.91796382  0.68839449    -0.01700
Br814      Br  0.46064930  0.99295803  0.66091483    -0.01800
Br815      Br  0.38448940  0.88926730  0.56212256    -0.01800
Br816      Br  0.34103144  0.95587423  0.49585800    -0.01700
C817        C  0.55019508  0.86577640  0.13948520     0.85500
C818        C  0.50914201  0.84893083  0.16836487    -0.54800
C819        C  0.52706797  0.82156454  0.19736433     0.08400
C820        C  0.58370057  0.80953083  0.18384221     0.19300
C821        C  0.59952724  0.86641653  0.17966182    -0.55500
C822        C  0.61850478  0.83780427  0.20402390     0.08500
C823        C  0.56272050  0.83927288  0.09840513    -0.55000
C824        C  0.58104256  0.80968658  0.11953591     0.09100
H825        H  0.71903679  0.85733716  0.16662174     0.13600
H826        H  0.59706500  0.78592601  0.20338507    -0.00700
H827        H  0.61678136  0.88934354  0.18849561     0.13900
H828        H  0.55511271  0.84345731  0.05568158     0.13700
C829        C  0.60774524  0.72250034  0.06458723     0.85500
C830        C  0.60312737  0.75044532  0.10451730    -0.54800
C831        C  0.59170911  0.78065733  0.08266996     0.08400
C832        C  0.58964539  0.77991340  0.01831453     0.19300
C833        C  0.55867515  0.72587252  0.02473608    -0.55500
C834        C  0.54851176  0.75476965  0.49857195     0.08500
C835        C  0.65331319  0.73363889  0.03459428    -0.55000
C836        C  0.64319193  0.76226911  0.00553287     0.09100
H837        H  0.60882830  0.74607309  0.14719645     0.13600
H838        H  0.58206072  0.80411508  0.49857592    -0.00700
H839        H  0.78030511  0.70541466  0.01311443     0.13900
H840        H  0.68954127  0.71912012  0.03209651     0.13700
C841        C  0.72836388  0.86532113  0.31347269     0.85500
C842        C  0.77115793  0.84980086  0.28116667    -0.54800
C843        C  0.75870577  0.82203913  0.25220693     0.08400
C844        C  0.70520816  0.80932180  0.26665964     0.19300
C845        C  0.67708381  0.86596196  0.27584030    -0.55500
C846        C  0.66408307  0.83761741  0.24929260     0.08500
C847        C  0.72337348  0.83799264  0.35313060    -0.55000
C848        C  0.70967440  0.80874401  0.33089527     0.09100
H849        H  0.55836333  0.86059527  0.27923073     0.13600
H850        H  0.69610140  0.78578202  0.24638890    -0.00700
H851        H  0.65363449  0.88854305  0.27057785     0.13900
H852        H  0.73151725  0.84174889  0.39588010     0.13700
C853        C  0.69878532  0.72169358  0.38511927     0.85500
C854        C  0.69747507  0.74939729  0.34496669    -0.54800
C855        C  0.70352869  0.77988193  0.36704440     0.08400
C856        C  0.71036773  0.77946278  0.43166053     0.19300
C857        C  0.75246504  0.72619109  0.41777494    -0.55500
C858        C  0.75820590  0.75516891  0.44577106     0.08500
C859        C  0.65758866  0.73247752  0.42293707    -0.55000
C860        C  0.66336220  0.76130309  0.45010809     0.09100
H861        H  0.69468673  0.74455009  0.30226448     0.13600
H862        H  0.71474888  0.80362348  0.45169937    -0.00700
H863        H  0.78681518  0.71021552  0.41583492     0.13900
H864        H  0.62888691  0.71565956  0.43287807     0.13700
C865        C  0.51357778  0.22376096  0.14942973     0.85500
C866        C  0.51548779  0.25037225  0.10766535    -0.54800
C867        C  0.52225366  0.28115771  0.12904764     0.08400
C868        C  0.52621156  0.28157085  0.19377343     0.19300
C869        C  0.56577080  0.22728287  0.18442834    -0.55500
C870        C  0.57211154  0.25644166  0.21105678     0.08500
C871        C  0.46971744  0.23648975  0.18212476    -0.55000
C872        C  0.47651474  0.26494518  0.20969876     0.09100
H873        H  0.51299024  0.24495377  0.06511883     0.13600
H874        H  0.53098849  0.30572051  0.21365351    -0.00700
H875        H  0.59658638  0.20802586  0.18750624     0.13900
H876        H  0.68797104  0.22228183  0.18479115     0.13700
C877        C  0.54537046  0.36662327  0.07695274     0.85500
C878        C  0.58974620  0.35297789  0.04481515    -0.54800
C879        C  0.58022864  0.32525039  0.01489359     0.08400
C880        C  0.52763998  0.31051424  0.02865462     0.19300
C881        C  0.49677549  0.36680054  0.03576361    -0.55500
C882        C  0.48574999  0.33794345  0.50988439     0.08500
C883        C  0.53775458  0.33991133  0.11585392    -0.55000
C884        C  0.52899142  0.31003993  0.09299997     0.09100
H885        H  0.62126260  0.36830170  0.03721602     0.13600
H886        H  0.52070350  0.28667067  0.50832440    -0.00700
H887        H  0.71052443  0.38828702  0.03335279     0.13900
H888        H  0.53961407  0.34485577  0.15845049     0.13700
C889        C  0.67457286  0.22527152  0.32299705     0.85500
C890        C  0.67163723  0.25338758  0.36333122    -0.54800
C891        C  0.65884780  0.28352083  0.34149239     0.08400
C892        C  0.65395385  0.28250781  0.27711086     0.19300
C893        C  0.62269682  0.22877453  0.28798603    -0.55500
C894        C  0.61202850  0.25721054  0.26031846     0.08500
C895        C  0.71726505  0.23569116  0.28933902    -0.55000
C896        C  0.70668807  0.26485458  0.26197965     0.09100
H897        H  0.68040675  0.24982028  0.40587170     0.13600
H898        H  0.64509820  0.30653295  0.25708661    -0.00700
H899        H  0.59698978  0.20879654  0.28366588     0.13900
H900        H  0.49848958  0.21846492  0.28514794     0.13700
C901        C  0.62424165  0.36963075  0.39887132     0.85500
C902        C  0.58347447  0.35607588  0.43189722    -0.54800
C903        C  0.59806514  0.32719218  0.45862290     0.08400
C904        C  0.65234466  0.31256242  0.44269138     0.19300
C905        C  0.67625678  0.36830634  0.43509656    -0.55500
C906        C  0.69074566  0.33941583  0.46087133     0.08500
C907        C  0.63478305  0.34296591  0.35744570    -0.55000
C908        C  0.64868676  0.31264649  0.37836666     0.09100
H909        H  0.55029970  0.37184239  0.44179145     0.13600
H910        H  0.66378226  0.28870590  0.46230882    -0.00700
H911        H  0.69998836  0.38933621  0.44041312     0.13900
H912        H  0.63282813  0.34799874  0.31502370     0.13700
O913        O  0.63567404  0.50788748  0.16930896    -0.74000
O914        O  0.66403747  0.57605881  0.28140219    -0.74900
O915        O  0.64959788  0.50535994  0.28159521    -0.63600
O916        O  0.64434209  0.57754639  0.17047292    -0.72000
O917        O  0.55893830  0.58309004  0.17618083    -0.71500
O918        O  0.56516570  0.51643012  0.29029833    -0.62800
O919        O  0.57937100  0.58671484  0.28778065    -0.75300
O920        O  0.55111002  0.51364664  0.17915828    -0.74100
Cu921      Cu  0.65144848  0.54141207  0.22579715     1.04600
Cu922      Cu  0.56077161  0.55034848  0.23361168     1.04300
C923        C  0.58960324  0.49810126  0.15912478     0.92200
C924        C  0.62716376  0.59412476  0.29903375     0.91400
C925        C  0.60696125  0.49822532  0.30032848     0.83500
C926        C  0.59956685  0.59241057  0.15713449     0.89800
O927        O  0.67809320  0.08036558  0.43364458    -0.74000
O928        O  0.71399438  0.00886008  0.04261258    -0.74900
O929        O  0.69705832  0.07893977  0.04495311    -0.63600
O930        O  0.69172040  0.00852258  0.43293474    -0.72000
O931        O  0.52874194  0.01153332  0.42782609    -0.71500
O932        O  0.53176661  0.08529642  0.03660610    -0.62800
O933        O  0.55125641  0.01617372  0.03913375    -0.75300
O934        O  0.51318160  0.08303577  0.42545452    -0.74100
Cu935      Cu  0.69216459  0.04409944  0.48859048     1.04600
Cu936      Cu  0.53414795  0.04918393  0.48174479     1.04300
C937        C  0.71535843  0.09410275  0.41387069     0.92200
C938        C  0.51564693  0.00010491  0.05670665     0.91400
C939        C  0.48976296  0.09384960  0.05802401     0.83500
C940        C  0.73412745  0.99670172  0.41574095     0.89800
C941        C  0.57704203  0.41023922  0.32903634    -0.02900
C942        C  0.60829518  0.40465291  0.37801439     0.06800
C943        C  0.62305416  0.43300493  0.40833594    -0.03000
C944        C  0.62554902  0.46328097  0.38262628    -0.03000
C945        C  0.60406404  0.46701084  0.32935076     0.06900
C946        C  0.57485195  0.44144288  0.30512870    -0.03200
Br947      Br  0.52943185  0.44924846  0.24086495    -0.01700
Br948      Br  0.53099156  0.37737699  0.29870825    -0.01800
Br949      Br  0.65432032  0.50026952  0.42129707    -0.01800
Br950      Br  0.62638783  0.43305088  0.48546617    -0.01700
C951        C  0.68002345  0.18364210  0.39808387    -0.02900
C952        C  0.68314384  0.18983320  0.34391552     0.06800
C953        C  0.68914046  0.16172254  0.30965732    -0.03000
C954        C  0.69705560  0.12973052  0.33159032    -0.03000
C955        C  0.70457109  0.12617410  0.38729724     0.06900
C956        C  0.70220698  0.15435315  0.41953455    -0.03200
Br957      Br  0.75754450  0.15980344  0.47445448    -0.01700
Br958      Br  0.62000336  0.20163315  0.43089288    -0.01800
Br959      Br  0.70114039  0.09117399  0.28653433    -0.01800
Br960      Br  0.68069535  0.16502477  0.23332863    -0.01700
C961        C  0.61977803  0.43947521  0.13825544    -0.02900
C962        C  0.58149575  0.46617664  0.13030540     0.06800
C963        C  0.53073800  0.45934956  0.10802017    -0.03000
C964        C  0.51736243  0.42669575  0.10029394    -0.03000
C965        C  0.55612443  0.40042379  0.10299281     0.06900
C966        C  0.60656235  0.40688321  0.12707695    -0.03200
Br967      Br  0.65531731  0.37095005  0.15257869    -0.01700
Br968      Br  0.69113150  0.44592761  0.16409784    -0.01800
Br969      Br  0.76881384  0.43377257  0.99435472    -0.01800
Br970      Br  0.75974604  0.50300157  0.06149903    -0.01700
C971        C  0.53260336  0.16014223  0.15484417    -0.02900
C972        C  0.50344257  0.18817836  0.13080376     0.06800
C973        C  0.70917052  0.18263273  0.09240764    -0.03000
C974        C  0.69885805  0.15005736  0.07692269    -0.03000
C975        C  0.48819375  0.12386705  0.09122349     0.06900
C976        C  0.52953010  0.12925309  0.13026831    -0.03200
Br977      Br  0.57706404  0.09286543  0.15586190    -0.01700
Br978      Br  0.55554041  0.15789379  0.23028249    -0.01800
Br979      Br  0.63304238  0.14107118  0.53737200    -0.01800
Br980      Br  0.65911538  0.21778655  0.06691971    -0.01700
C981        C  0.61275455  0.65517318  0.31577809    -0.02900
C982        C  0.64150392  0.62525723  0.32795623     0.06800
C983        C  0.68936946  0.62599998  0.36055994    -0.03000
C984        C  0.71092157  0.65616482  0.37717990    -0.03000
C985        C  0.68376928  0.68720288  0.36171674     0.06900
C986        C  0.63348634  0.68556600  0.33119740    -0.03200
Br987      Br  0.58877491  0.72479051  0.31137658    -0.01700
Br988      Br  0.54332550  0.65521150  0.27881623    -0.01800
Br989      Br  0.52252792  0.65083713  0.43235894    -0.01800
Br990      Br  0.72319815  0.58449933  0.38677225    -0.01700
C991        C  0.71061433  0.93816664  0.40916909    -0.02900
C992        C  0.73388133  0.96444254  0.38749943     0.06800
C993        C  0.75888651  0.95863213  0.34121552    -0.03000
C994        C  0.76445884  0.92615301  0.32062925    -0.03000
C995        C  0.73473602  0.90018436  0.33921001     0.06900
C996        C  0.70231068  0.90942762  0.38012563    -0.03200
Br997      Br  0.64252966  0.88594494  0.39707417    -0.01700
Br998      Br  0.71035514  0.93428870  0.48413355    -0.01800
Br999      Br  0.56167969  0.92220337  0.26722758    -0.01800
Br1000     Br  0.53563477  0.99577657  0.30776866    -0.01700
C1001       C  0.56690341  0.68079643  0.12061858    -0.02900
C1002       C  0.60792856  0.68747359  0.08805590     0.06800
C1003       C  0.63415322  0.65929282  0.06546040    -0.03000
C1004       C  0.62984334  0.62751115  0.08582747    -0.03000
C1005       C  0.59515344  0.62268299  0.12418582     0.06900
C1006       C  0.55826110  0.64839608  0.13408027    -0.03200
Br1007     Br  0.49016511  0.63895215  0.15518049    -0.01700
Br1008     Br  0.51576213  0.71429838  0.14257761    -0.01800
Br1009     Br  0.66545614  0.58934640  0.05587370    -0.01800
Br1010     Br  0.66807938  0.66049758  0.00089890    -0.01700
C1011       C  0.74821445  0.95854077  0.12298696    -0.02900
C1012       C  0.53035101  0.96878190  0.08459084     0.06800
C1013       C  0.56527339  0.94575045  0.06266393    -0.03000
C1014       C  0.57305278  0.91362837  0.08250763    -0.03000
C1015       C  0.53829055  0.90147981  0.11765278     0.06900
C1016       C  0.75181255  0.92529171  0.13882897    -0.03200
Br1017     Br  0.70623070  0.91721140  0.19156617    -0.01700
Br1018     Br  0.70390321  0.99152144  0.15665091    -0.01800
Br1019     Br  0.63469708  0.88845345  0.06228710    -0.01800
Br1020     Br  0.59162161  0.95524201  0.99600093    -0.01700
C1021       C  0.55019524  0.86577684  0.63948586     0.85500
C1022       C  0.50914208  0.84893120  0.66836546    -0.54800
C1023       C  0.52706810  0.82156479  0.69736469     0.08400
C1024       C  0.58370065  0.80953117  0.68384256     0.19300
C1025       C  0.59952747  0.86641685  0.67966250    -0.55500
C1026       C  0.61850489  0.83780451  0.70402447     0.08500
C1027       C  0.56272062  0.83927341  0.59840568    -0.55000
C1028       C  0.58104270  0.80968710  0.61953622     0.09100
H1029       H  0.71903677  0.85733705  0.66662214     0.13600
H1030       H  0.59706504  0.78592634  0.70338533    -0.00700
H1031       H  0.61678179  0.88934376  0.68849629     0.13900
H1032       H  0.55511286  0.84345797  0.55568177     0.13700
C1033       C  0.60774564  0.72250093  0.56458790     0.85500
C1034       C  0.60312788  0.75044598  0.60451768    -0.54800
C1035       C  0.59170943  0.78065790  0.58267031     0.08400
C1036       C  0.58964567  0.77991389  0.51831486     0.19300
C1037       C  0.55867550  0.72587300  0.52473679    -0.55500
C1038       C  0.54851146  0.75476923  0.99857144     0.08500
C1039       C  0.65331359  0.73363941  0.53459479    -0.55000
C1040       C  0.64319224  0.76226961  0.50553326     0.09100
H1041       H  0.60882920  0.74607379  0.64719721     0.13600
H1042       H  0.58206051  0.80411460  0.99857568    -0.00700
H1043       H  0.78030604  0.70541487  0.51311344     0.13900
H1044       H  0.68954150  0.71912077  0.53209706     0.13700
C1045       C  0.72836408  0.86532087  0.81347347     0.85500
C1046       C  0.77115796  0.84980072  0.78116708    -0.54800
C1047       C  0.75870577  0.82203905  0.75220718     0.08400
C1048       C  0.70520822  0.80932170  0.76665993     0.19300
C1049       C  0.67708386  0.86596181  0.77584134    -0.55500
C1050       C  0.66408312  0.83761740  0.74929325     0.08500
C1051       C  0.72337387  0.83799223  0.85313121    -0.55000
C1052       C  0.70967471  0.80874365  0.83089553     0.09100
H1053       H  0.55836385  0.86059502  0.77923163     0.13600
H1054       H  0.69610134  0.78578193  0.74638896    -0.00700
H1055       H  0.65363439  0.88854295  0.77057920     0.13900
H1056       H  0.73151774  0.84174831  0.89588031     0.13700
C1057       C  0.69878513  0.72169306  0.88511900     0.85500
C1058       C  0.69747543  0.74939683  0.84496656    -0.54800
C1059       C  0.70352902  0.77988144  0.86704442     0.08400
C1060       C  0.71036759  0.77946225  0.93166049     0.19300
C1061       C  0.75246460  0.72619047  0.91777539    -0.55500
C1062       C  0.75820549  0.75516829  0.94577138     0.08500
C1063       C  0.65758821  0.73247713  0.92293652    -0.55000
C1064       C  0.66336182  0.76130266  0.95010767     0.09100
H1065       H  0.69468735  0.74454969  0.80226429     0.13600
H1066       H  0.71474870  0.80362287  0.95169939    -0.00700
H1067       H  0.78681487  0.71021448  0.91583667     0.13900
H1068       H  0.62888627  0.71565921  0.93287739     0.13700
C1069       C  0.51357753  0.22376117  0.64943011     0.85500
C1070       C  0.51548787  0.25037233  0.60766556    -0.54800
C1071       C  0.52225412  0.28115780  0.62904762     0.08400
C1072       C  0.52621183  0.28157111  0.69377342     0.19300
C1073       C  0.56577058  0.22728299  0.68442869    -0.55500
C1074       C  0.57211154  0.25644183  0.71105697     0.08500
C1075       C  0.46971720  0.23649025  0.68212500    -0.55000
C1076       C  0.47651480  0.26494569  0.70969894     0.09100
H1077       H  0.51299038  0.24495371  0.56511908     0.13600
H1078       H  0.53098904  0.30572085  0.71365334    -0.00700
H1079       H  0.59658619  0.20802606  0.68750638     0.13900
H1080       H  0.68797086  0.22228214  0.68479198     0.13700
C1081       C  0.54537241  0.36662296  0.57695210     0.85500
C1082       C  0.58974816  0.35297734  0.54481480    -0.54800
C1083       C  0.58023049  0.32524987  0.51489331     0.08400
C1084       C  0.52764164  0.31051385  0.52865433     0.19300
C1085       C  0.49677756  0.36680020  0.53576276    -0.55500
C1086       C  0.48574811  0.33794382  0.00988500     0.08500
C1087       C  0.53775624  0.33991120  0.61585346    -0.55000
C1088       C  0.52899277  0.31003979  0.59299974     0.09100
H1089       H  0.62126486  0.36830117  0.53721560     0.13600
H1090       H  0.52070189  0.28667103  0.00832445    -0.00700
H1091       H  0.71052684  0.38828670  0.53335233     0.13900
H1092       H  0.53961560  0.34485580  0.65845002     0.13700
C1093       C  0.67457256  0.22527191  0.82299774     0.85500
C1094       C  0.67163617  0.25338796  0.86333187    -0.54800
C1095       C  0.65884682  0.28352121  0.84149283     0.08400
C1096       C  0.65395365  0.28250810  0.77711131     0.19300
C1097       C  0.62269693  0.22877478  0.78798620    -0.55500
C1098       C  0.61202859  0.25721070  0.76031852     0.08500
C1099       C  0.71726518  0.23569164  0.78934017    -0.55000
C1100       C  0.70668815  0.26485501  0.76198052     0.09100
H1101       H  0.68040466  0.24982061  0.90587225     0.13600
H1102       H  0.64509798  0.30653330  0.75708692    -0.00700
H1103       H  0.59698962  0.20879653  0.78366592     0.13900
H1104       H  0.49849016  0.21846568  0.78514841     0.13700
C1105       C  0.62423964  0.36963113  0.89887151     0.85500
C1106       C  0.58347252  0.35607629  0.93189746    -0.54800
C1107       C  0.59806329  0.32719262  0.95862320     0.08400
C1108       C  0.65234283  0.31256289  0.94269168     0.19300
C1109       C  0.67625476  0.36830688  0.93509680    -0.55500
C1110       C  0.69074368  0.33941632  0.96087153     0.08500
C1111       C  0.63478113  0.34296627  0.85744593    -0.55000
C1112       C  0.64868508  0.31264686  0.87836699     0.09100
H1113       H  0.55029786  0.37184277  0.94179173     0.13600
H1114       H  0.66378054  0.28870638  0.96230926    -0.00700
H1115       H  0.69998601  0.38933656  0.94041336     0.13900
H1116       H  0.63282619  0.34799901  0.81502399     0.13700
O1117       O  0.63567313  0.50788793  0.66930799    -0.74000
O1118       O  0.66403553  0.57605877  0.78140203    -0.74900
O1119       O  0.64959664  0.50535991  0.78159418    -0.63600
O1120       O  0.64434081  0.57754684  0.67047284    -0.72000
O1121       O  0.55893688  0.58309040  0.67618005    -0.71500
O1122       O  0.56516437  0.51642998  0.79029698    -0.62800
O1123       O  0.57936897  0.58671484  0.78777986    -0.75300
O1124       O  0.55110900  0.51364684  0.67915671    -0.74100
Cu1125     Cu  0.65144711  0.54141229  0.72579658     1.04600
Cu1126     Cu  0.56077012  0.55034856  0.73361053     1.04300
C1127       C  0.58960246  0.49810158  0.65912342     0.92200
C1128       C  0.62716167  0.59412469  0.79903343     0.91400
C1129       C  0.60696001  0.49822526  0.80032736     0.83500
C1130       C  0.59956564  0.59241107  0.65713426     0.89800
O1131       O  0.67809275  0.08036562  0.93364567    -0.74000
O1132       O  0.71399283  0.00886022  0.54261226    -0.74900
O1133       O  0.69705744  0.07894011  0.54495234    -0.63600
O1134       O  0.69172044  0.00852261  0.93293515    -0.72000
O1135       O  0.52874237  0.01153348  0.92782559    -0.71500
O1136       O  0.53176613  0.08529671  0.53660569    -0.62800
O1137       O  0.55125597  0.01617410  0.53913417    -0.75300
O1138       O  0.51318212  0.08303603  0.92545489    -0.74100
Cu1139     Cu  0.69216515  0.04409931  0.98859115     1.04600
Cu1140     Cu  0.53414844  0.04918387  0.98174476     1.04300
C1141       C  0.71535759  0.09410306  0.91387155     0.92200
C1142       C  0.51564650  0.00010523  0.55670696     0.91400
C1143       C  0.48976255  0.09384989  0.55802372     0.83500
C1144       C  0.73412728  0.99670184  0.91574081     0.89800
C1145       C  0.57704016  0.41023943  0.82903629    -0.02900
C1146       C  0.60829311  0.40465326  0.87801446     0.06800
C1147       C  0.62305238  0.43300532  0.90833564    -0.03000
C1148       C  0.62554784  0.46328114  0.88262551    -0.03000
C1149       C  0.60406288  0.46701086  0.82934991     0.06900
C1150       C  0.57485068  0.44144289  0.80512809    -0.03200
Br1151     Br  0.52943181  0.44924807  0.74086341    -0.01700
Br1152     Br  0.53098918  0.37737732  0.79870887    -0.01800
Br1153     Br  0.65432048  0.50026946  0.92129570    -0.01800
Br1154     Br  0.62638539  0.43305172  0.98546589    -0.01700
C1155       C  0.68002146  0.18364240  0.89808440    -0.02900
C1156       C  0.68314347  0.18983359  0.84391636     0.06800
C1157       C  0.68914088  0.16172297  0.80965829    -0.03000
C1158       C  0.69705566  0.12973093  0.83159128    -0.03000
C1159       C  0.70456964  0.12617444  0.88729822     0.06900
C1160       C  0.70220488  0.15435350  0.91953554    -0.03200
Br1161     Br  0.75754399  0.15980432  0.97445366    -0.01700
Br1162     Br  0.61999962  0.20163304  0.93089094    -0.01800
Br1163     Br  0.70114196  0.09117445  0.78653535    -0.01800
Br1164     Br  0.68069695  0.16502533  0.73332969    -0.01700
C1165       C  0.61977881  0.43947585  0.63825331    -0.02900
C1166       C  0.58149557  0.46617686  0.63030403     0.06800
C1167       C  0.53073778  0.45934911  0.60801972    -0.03000
C1168       C  0.51736327  0.42669508  0.60029380    -0.03000
C1169       C  0.55612606  0.40042359  0.60299188     0.06900
C1170       C  0.60656403  0.40688364  0.62707516    -0.03200
Br1171     Br  0.65532026  0.37095103  0.65257656    -0.01700
Br1172     Br  0.69113257  0.44592909  0.66409373    -0.01800
Br1173     Br  0.76881725  0.43377151  0.49435383    -0.01800
Br1174     Br  0.75975379  0.50300137  0.56149569    -0.01700
C1175       C  0.53260312  0.16014231  0.65484429    -0.02900
C1176       C  0.50344219  0.18817853  0.63080419     0.06800
C1177       C  0.70917029  0.18263282  0.59240854    -0.03000
C1178       C  0.69885768  0.15005753  0.57692318    -0.03000
C1179       C  0.48819343  0.12386734  0.59122320     0.06900
C1180       C  0.52952966  0.12925322  0.63026825    -0.03200
Br1181     Br  0.57706323  0.09286533  0.65586174    -0.01700
Br1182     Br  0.55554183  0.15789370  0.73028228    -0.01800
Br1183     Br  0.63304291  0.14107078  0.03737136    -0.01800
Br1184     Br  0.65911499  0.21778677  0.56692149    -0.01700
C1185       C  0.61275293  0.65517313  0.81577824    -0.02900
C1186       C  0.64150191  0.62525703  0.82795627     0.06800
C1187       C  0.68936765  0.62599955  0.86055954    -0.03000
C1188       C  0.71092075  0.65616425  0.87717853    -0.03000
C1189       C  0.68376866  0.68720248  0.86171601     0.06900
C1190       C  0.63348548  0.68556585  0.83119698    -0.03200
Br1191     Br  0.58877490  0.72479061  0.81137542    -0.01700
Br1192     Br  0.54332322  0.65521168  0.77881801    -0.01800
Br1193     Br  0.52252430  0.65083727  0.93236085    -0.01800
Br1194     Br  0.72319509  0.58449877  0.88677287    -0.01700
C1195       C  0.71061469  0.93816657  0.90916991    -0.02900
C1196       C  0.73388100  0.96444255  0.88749956     0.06800
C1197       C  0.75888555  0.95863208  0.84121529    -0.03000
C1198       C  0.76445856  0.92615285  0.82062971    -0.03000
C1199       C  0.73473632  0.90018408  0.83921100     0.06900
C1200       C  0.70231128  0.90942734  0.88012688    -0.03200
Br1201     Br  0.64253053  0.88594455  0.89707572    -0.01700
Br1202     Br  0.71035411  0.93428958  0.98413441    -0.01800
Br1203     Br  0.56167938  0.92220301  0.76722708    -0.01800
Br1204     Br  0.53563673  0.99577609  0.80776895    -0.01700
C1205       C  0.56690391  0.68079730  0.62061991    -0.02900
C1206       C  0.60792893  0.68747427  0.58805690     0.06800
C1207       C  0.63415304  0.65929340  0.56546116    -0.03000
C1208       C  0.62984257  0.62751169  0.58582775    -0.03000
C1209       C  0.59515265  0.62268363  0.62418606     0.06900
C1210       C  0.55826100  0.64839696  0.63408115    -0.03200
Br1211     Br  0.49016488  0.63895344  0.65518132    -0.01700
Br1212     Br  0.51576339  0.71429948  0.64257986    -0.01800
Br1213     Br  0.66545481  0.58934682  0.55587356    -0.01800
Br1214     Br  0.66807937  0.66049816  0.50089991    -0.01700
C1215       C  0.74821199  0.95854044  0.62298655    -0.02900
C1216       C  0.53035063  0.96878230  0.58459126     0.06800
C1217       C  0.56527364  0.94575101  0.56266490    -0.03000
C1218       C  0.57305310  0.91362895  0.58250867    -0.03000
C1219       C  0.53829067  0.90148028  0.61765353     0.06900
C1220       C  0.75181145  0.92529150  0.63882938    -0.03200
Br1221     Br  0.70623161  0.91721117  0.69156838    -0.01700
Br1222     Br  0.70389834  0.99152051  0.65664883    -0.01800
Br1223     Br  0.63469762  0.88845410  0.56228856    -0.01800
Br1224     Br  0.59162327  0.95524284  0.49600269    -0.01700
C1225       C  0.80075310  0.86558229  0.13914561     0.85500
C1226       C  0.75938375  0.84853455  0.16722946    -0.54800
C1227       C  0.77715819  0.82122938  0.19644893     0.08400
C1228       C  0.83406968  0.80925939  0.18343323     0.19300
C1229       C  0.84968497  0.86622391  0.17994285    -0.55500
C1230       C  0.86886778  0.83758368  0.20428991     0.08500
C1231       C  0.81382917  0.83917338  0.09802722    -0.55000
C1232       C  0.83153579  0.80941415  0.11899873     0.09100
H1233       H  0.96896789  0.85780443  0.16848678     0.13600
H1234       H  0.84729927  0.78558137  0.20282449    -0.00700
H1235       H  0.86597284  0.88913301  0.18946303     0.13900
H1236       H  0.80617544  0.84337937  0.05531061     0.13700
C1237       C  0.85337205  0.72168348  0.06323723     0.85500
C1238       C  0.84929587  0.74964794  0.10333051    -0.54800
C1239       C  0.84007218  0.78009325  0.08175318     0.08400
C1240       C  0.83858062  0.77938951  0.01735630     0.19300
C1241       C  0.80507692  0.72582621  0.02273783    -0.55500
C1242       C  0.79658252  0.75478699  0.49655416     0.08500
C1243       C  0.90005075  0.73202834  0.03383042    -0.55000
C1244       C  0.89178469  0.76106728  0.00533596     0.09100
H1245       H  0.85396120  0.74514992  0.14599485     0.13600
H1246       H  0.83224086  0.80370020  0.49778599    -0.00700
H1247       H  0.03429910  0.70518822  0.01594177     0.13900
H1248       H  0.93561067  0.71668440  0.03144004     0.13700
C1249       C  0.97882119  0.86546123  0.31450238     0.85500
C1250       C  0.02170290  0.84991286  0.28233174    -0.54800
C1251       C  0.00915509  0.82216491  0.25333631     0.08400
C1252       C  0.95577116  0.80938639  0.26806193     0.19300
C1253       C  0.92763933  0.86602177  0.27653188    -0.55500
C1254       C  0.91438535  0.83753895  0.25024596     0.08500
C1255       C  0.97411546  0.83823799  0.35439749    -0.55000
C1256       C  0.96071497  0.80895576  0.33248417     0.09100
H1257       H  0.80775186  0.86046628  0.27799114     0.13600
H1258       H  0.94677983  0.78578648  0.24794663    -0.00700
H1259       H  0.90523118  0.88861396  0.27041739     0.13900
H1260       H  0.98289738  0.84187044  0.39713518     0.13700
C1261       C  0.95134794  0.72197343  0.38632768     0.85500
C1262       C  0.95186340  0.74962945  0.34673787    -0.54800
C1263       C  0.95611878  0.78004247  0.36903510     0.08400
C1264       C  0.96147759  0.77936046  0.43382417     0.19300
C1265       C  0.00398060  0.72599273  0.42051703    -0.55500
C1266       C  0.00914624  0.75486345  0.44873481     0.08500
C1267       C  0.90861911  0.73247416  0.42252251    -0.55000
C1268       C  0.91381359  0.76092271  0.45069561     0.09100
H1269       H  0.95123292  0.74479302  0.30415057     0.13600
H1270       H  0.96531991  0.80348633  0.45416209    -0.00700
H1271       H  0.03811441  0.70966909  0.41900931     0.13900
H1272       H  0.87908226  0.71573480  0.43057741     0.13700
C1273       C  0.76471187  0.22440391  0.14675706     0.85500
C1274       C  0.76750412  0.25104621  0.10515570    -0.54800
C1275       C  0.77330875  0.28184084  0.12658983     0.08400
C1276       C  0.77685310  0.28208933  0.19151583     0.19300
C1277       C  0.81637006  0.22772607  0.18289110    -0.55500
C1278       C  0.82244991  0.25680594  0.20976817     0.08500
C1279       C  0.72013694  0.23722793  0.17873991    -0.55000
C1280       C  0.72681054  0.26559021  0.20679130     0.09100
H1281       H  0.76534267  0.24581369  0.06253772     0.13600
H1282       H  0.78167994  0.30619867  0.21152640    -0.00700
H1283       H  0.84692838  0.20832151  0.18685306     0.13900
H1284       H  0.93778281  0.22152225  0.18875187     0.13700
C1285       C  0.78948383  0.36891520  0.07555097     0.85500
C1286       C  0.83543857  0.35687177  0.04465296    -0.54800
C1287       C  0.82860665  0.32920479  0.01404293     0.08400
C1288       C  0.77696893  0.31268575  0.02606958     0.19300
C1289       C  0.73954987  0.36786621  0.03678556    -0.55500
C1290       C  0.73281118  0.33937986  0.50822498     0.08500
C1291       C  0.78159878  0.34138047  0.11341437    -0.55000
C1292       C  0.77757926  0.31121678  0.09037271     0.09100
H1293       H  0.86676908  0.37297018  0.03925222     0.13600
H1294       H  0.77211162  0.28885894  0.50495270    -0.00700
H1295       H  0.97581302  0.38930047  0.02367135     0.13900
H1296       H  0.77672462  0.34606667  0.15512797     0.13700
C1297       C  0.92212813  0.22528807  0.32489255     0.85500
C1298       C  0.91839596  0.25368939  0.36475677    -0.54800
C1299       C  0.90640976  0.28380209  0.34249243     0.08400
C1300       C  0.90287462  0.28248011  0.27827946     0.19300
C1301       C  0.87100766  0.22877226  0.28828673    -0.55500
C1302       C  0.86108006  0.25727308  0.26036455     0.08500
C1303       C  0.96582014  0.23558781  0.29238600    -0.55000
C1304       C  0.95595123  0.26468865  0.26462397     0.09100
H1305       H  0.92765748  0.25055861  0.40728750     0.13600
H1306       H  0.89476899  0.30648350  0.25811123    -0.00700
H1307       H  0.84560161  0.20865900  0.28284662     0.13900
H1308       H  0.74970057  0.21863333  0.28122441     0.13700
C1309       C  0.88183186  0.37151737  0.39923984     0.85500
C1310       C  0.83949638  0.36039133  0.43287263    -0.54800
C1311       C  0.84994281  0.33110371  0.45926414     0.08400
C1312       C  0.90249301  0.31375113  0.44353551     0.19300
C1313       C  0.93431625  0.36730947  0.43416950    -0.55500
C1314       C  0.94470321  0.33858551  0.46122121     0.08500
C1315       C  0.88758525  0.34426259  0.35764962    -0.55000
C1316       C  0.89838622  0.31353249  0.37892393     0.09100
H1317       H  0.80673925  0.37701253  0.44123375     0.13600
H1318       H  0.91091460  0.28967714  0.46337699    -0.00700
H1319       H  0.96238066  0.38613726  0.43670703     0.13900
H1320       H  0.88452277  0.34919294  0.31509721     0.13700
O1321       O  0.87672477  0.50655595  0.17634312    -0.74000
O1322       O  0.91438141  0.57855938  0.27758379    -0.74900
O1323       O  0.89971362  0.50932584  0.28646838    -0.63600
O1324       O  0.88757553  0.57624930  0.16804779    -0.72000
O1325       O  0.80338978  0.58348510  0.17909446    -0.71500
O1326       O  0.81636351  0.52099408  0.29961028    -0.62800
O1327       O  0.83080940  0.58965967  0.28953428    -0.75300
O1328       O  0.79264905  0.51451726  0.19016676    -0.74100
Cu1329     Cu  0.89757634  0.54234581  0.22674575     1.04600
Cu1330     Cu  0.80794684  0.55263728  0.23990140     1.04300
C1331       C  0.82983252  0.49748045  0.17074441     0.92200
C1332       C  0.87895495  0.59670476  0.29741139     0.91400
C1333       C  0.85848882  0.50298387  0.30847432     0.83500
C1334       C  0.84300216  0.59178202  0.15692883     0.89800
O1335       O  0.92878244  0.08001907  0.43679451    -0.74000
O1336       O  0.96707518  0.00861356  0.04489684    -0.74900
O1337       O  0.94852725  0.07811846  0.04782759    -0.63600
O1338       O  0.94378219  0.00824605  0.43539999    -0.72000
O1339       O  0.77693814  0.01124848  0.42617900    -0.71500
O1340       O  0.78049353  0.08534806  0.03373820    -0.62800
O1341       O  0.79831347  0.01611282  0.03758482    -0.75300
O1342       O  0.76270508  0.08257388  0.42264684    -0.74100
Cu1343     Cu  0.94405151  0.04363611  0.49128519     1.04600
Cu1344     Cu  0.78247804  0.04896160  0.47958334     1.04300
C1345       C  0.96561127  0.09423160  0.41708101     0.92200
C1346       C  0.76243567  0.00007984  0.05477839     0.91400
C1347       C  0.73866216  0.09437843  0.05504785     0.83500
C1348       C  0.98611868  0.99669003  0.41775965     0.89800
C1349       C  0.82752381  0.41624947  0.34128527    -0.02900
C1350       C  0.87005884  0.40733364  0.37966164     0.06800
C1351       C  0.89774109  0.43371314  0.40439070    -0.03000
C1352       C  0.89829355  0.46368366  0.37848673    -0.03000
C1353       C  0.85776923  0.47227796  0.33906272     0.06900
C1354       C  0.81906493  0.44937286  0.32491789    -0.03200
Br1355     Br  0.75555709  0.46255797  0.28214456    -0.01700
Br1356     Br  0.77938573  0.38427549  0.31240812    -0.01800
Br1357     Br  0.95015388  0.49430425  0.40306266    -0.01800
Br1358     Br  0.90861248  0.43730987  0.48064607    -0.01700
C1359       C  0.92909294  0.18380328  0.40096559    -0.02900
C1360       C  0.93063838  0.18980078  0.34640346     0.06800
C1361       C  0.93703190  0.16148062  0.31256665    -0.03000
C1362       C  0.94528547  0.12956928  0.33484713    -0.03000
C1363       C  0.95396063  0.12626315  0.39048436     0.06900
C1364       C  0.95187646  0.15460183  0.42238175    -0.03200
Br1365     Br  0.00659990  0.16017290  0.47787813    -0.01700
Br1366     Br  0.87158355  0.20262555  0.43677173    -0.01800
Br1367     Br  0.94852320  0.09068990  0.29034131    -0.01800
Br1368     Br  0.93030192  0.16431163  0.23632574    -0.01700
C1369       C  0.84314598  0.43662278  0.17083539    -0.02900
C1370       C  0.81990987  0.46539594  0.14586224     0.06800
C1371       C  0.79045082  0.46332014  0.09619813    -0.03000
C1372       C  0.78482043  0.43254651  0.07121814    -0.03000
C1373       C  0.79950764  0.40285609  0.10051014     0.06900
C1374       C  0.83231513  0.40549061  0.14943582    -0.03200
Br1375     Br  0.87217943  0.36783637  0.18353254    -0.01700
Br1376     Br  0.89573084  0.43938120  0.23079384    -0.01800
Br1377     Br  0.94662045  0.41805247  0.10979413    -0.01800
Br1378     Br  0.97790642  0.49429221  0.08925226    -0.01700
C1379       C  0.78355829  0.16069047  0.15112814    -0.02900
C1380       C  0.75458160  0.18890469  0.12751089     0.06800
C1381       C  0.95781393  0.18162851  0.09621853    -0.03000
C1382       C  0.94855334  0.14907424  0.07983982    -0.03000
C1383       C  0.73804164  0.12455339  0.08807086     0.06900
C1384       C  0.78028312  0.12994588  0.12612678    -0.03200
Br1385     Br  0.82933634  0.09386940  0.14992347    -0.01700
Br1386     Br  0.80545032  0.15766614  0.22664952    -0.01800
Br1387     Br  0.88385578  0.13982512  0.53815169    -0.01800
Br1388     Br  0.90578898  0.21627835  0.07328970    -0.01700
C1389       C  0.86659225  0.65726148  0.31378115    -0.02900
C1390       C  0.89477739  0.62726213  0.32581941     0.06800
C1391       C  0.94222416  0.62717875  0.35913334    -0.03000
C1392       C  0.96272971  0.65692979  0.37881326    -0.03000
C1393       C  0.93715038  0.68808044  0.36174932     0.06900
C1394       C  0.88826457  0.68722250  0.32862220    -0.03200
Br1395     Br  0.84592847  0.72680888  0.30507966    -0.01700
Br1396     Br  0.79609091  0.65808387  0.27942444    -0.01800
Br1397     Br  0.77614138  0.65063740  0.42311100    -0.01800
Br1398     Br  0.97656997  0.58521745  0.38219456    -0.01700
C1399       C  0.96293985  0.93804012  0.41150410    -0.02900
C1400       C  0.98591356  0.96435670  0.38952605     0.06800
C1401       C  0.00973537  0.95870306  0.34244443    -0.03000
C1402       C  0.01419370  0.92637620  0.32091335    -0.03000
C1403       C  0.98529457  0.90030877  0.34032907     0.06900
C1404       C  0.95415737  0.90929823  0.38246439    -0.03200
Br1405     Br  0.89472007  0.88575716  0.40034275    -0.01700
Br1406     Br  0.96059917  0.93510702  0.48644238    -0.01800
Br1407     Br  0.81481855  0.92188629  0.26989125    -0.01800
Br1408     Br  0.78508061  0.99562685  0.30648861    -0.01700
C1409       C  0.81068477  0.68038972  0.11907893    -0.02900
C1410       C  0.85184307  0.68666135  0.08649341     0.06800
C1411       C  0.87729329  0.65828235  0.06397947    -0.03000
C1412       C  0.87330613  0.62668066  0.08513950    -0.03000
C1413       C  0.83845152  0.62201513  0.12358699     0.06900
C1414       C  0.80225557  0.64814561  0.13402777    -0.03200
Br1415     Br  0.73655057  0.63983075  0.16172806    -0.01700
Br1416     Br  0.75961059  0.71438927  0.13948638    -0.01800
Br1417     Br  0.90979886  0.58863761  0.05582202    -0.01800
Br1418     Br  0.90765281  0.65911474  0.99729961    -0.01700
C1419       C  0.00164470  0.95917078  0.12514858    -0.02900
C1420       C  0.77700828  0.96856498  0.08266728     0.06800
C1421       C  0.81342884  0.94597794  0.06177073    -0.03000
C1422       C  0.82230856  0.91393192  0.08204502    -0.03000
C1423       C  0.78823320  0.90139577  0.11746401     0.06900
C1424       C  0.00258584  0.92574939  0.13921446    -0.03200
Br1425     Br  0.95321921  0.91796501  0.18839732    -0.01700
Br1426     Br  0.96064945  0.99295927  0.16091685    -0.01800
Br1427     Br  0.88448926  0.88927080  0.06212576    -0.01800
Br1428     Br  0.84103459  0.95587853  0.99586113    -0.01700
C1429       C  0.80075296  0.86558235  0.63914610     0.85500
C1430       C  0.75938365  0.84853446  0.66722975    -0.54800
C1431       C  0.77715825  0.82122929  0.69644917     0.08400
C1432       C  0.83406986  0.80925942  0.68343345     0.19300
C1433       C  0.84968480  0.86622406  0.67994344    -0.55500
C1434       C  0.86886779  0.83758379  0.70429032     0.08500
C1435       C  0.81382925  0.83917355  0.59802759    -0.55000
C1436       C  0.83153602  0.80941430  0.61899888     0.09100
H1437       H  0.96896831  0.85780481  0.66848805     0.13600
H1438       H  0.84729952  0.78558143  0.70282446    -0.00700
H1439       H  0.86597237  0.88913301  0.68946370     0.13900
H1440       H  0.80617552  0.84337966  0.55531093     0.13700
C1441       C  0.85337302  0.72168374  0.56323646     0.85500
C1442       C  0.84929644  0.74964808  0.60333001    -0.54800
C1443       C  0.84007263  0.78009346  0.58175308     0.08400
C1444       C  0.83858116  0.77938997  0.51735608     0.19300
C1445       C  0.80507789  0.72582654  0.52273700    -0.55500
C1446       C  0.79658185  0.75478656  0.99655462     0.08500
C1447       C  0.90005166  0.73202898  0.53383003    -0.55000
C1448       C  0.89178527  0.76106781  0.50533556     0.09100
H1449       H  0.85396162  0.74514986  0.64599476     0.13600
H1450       H  0.83224040  0.80369973  0.99778594    -0.00700
H1451       H  0.03429949  0.70518854  0.51594247     0.13900
H1452       H  0.93561210  0.71668537  0.53144009     0.13700
C1453       C  0.97882139  0.86546113  0.81450303     0.85500
C1454       C  0.02170322  0.84991263  0.78233272    -0.54800
C1455       C  0.00915516  0.82216484  0.75333694     0.08400
C1456       C  0.95577106  0.80938646  0.76806238     0.19300
C1457       C  0.92763965  0.86602190  0.77653224    -0.55500
C1458       C  0.91438548  0.83753906  0.75024631     0.08500
C1459       C  0.97411519  0.83823794  0.85439813    -0.55000
C1460       C  0.96071454  0.80895574  0.83248457     0.09100
H1461       H  0.80775194  0.86046610  0.77799155     0.13600
H1462       H  0.94677964  0.78578653  0.74794688    -0.00700
H1463       H  0.90523202  0.88861395  0.77041764     0.13900
H1464       H  0.98289685  0.84187031  0.89713542     0.13700
C1465       C  0.95134686  0.72197340  0.88632756     0.85500
C1466       C  0.95186203  0.74962954  0.84673788    -0.54800
C1467       C  0.95611789  0.78004247  0.86903539     0.08400
C1468       C  0.96147716  0.77936020  0.93382445     0.19300
C1469       C  0.00398000  0.72599249  0.92051629    -0.55500
C1470       C  0.00914586  0.75486313  0.94873436     0.08500
C1471       C  0.90861858  0.73247399  0.92252284    -0.55000
C1472       C  0.91381322  0.76092234  0.95069615     0.09100
H1473       H  0.95123118  0.74479321  0.80415066     0.13600
H1474       H  0.96531973  0.80348600  0.95416260    -0.00700
H1475       H  0.03811331  0.70966870  0.91900821     0.13900
H1476       H  0.87908125  0.71573435  0.93057786     0.13700
C1477       C  0.76471193  0.22440381  0.64675801     0.85500
C1478       C  0.76750444  0.25104597  0.60515650    -0.54800
C1479       C  0.77330930  0.28184063  0.62659045     0.08400
C1480       C  0.77685351  0.28208927  0.69151646     0.19300
C1481       C  0.81637010  0.22772590  0.68289200    -0.55500
C1482       C  0.82245010  0.25680580  0.70976893     0.08500
C1483       C  0.72013705  0.23722806  0.67874085    -0.55000
C1484       C  0.72681081  0.26559037  0.70679213     0.09100
H1485       H  0.76534314  0.24581337  0.56253862     0.13600
H1486       H  0.78168059  0.30619876  0.71152698    -0.00700
H1487       H  0.84692853  0.20832139  0.68685371     0.13900
H1488       H  0.93778278  0.22152295  0.68875160     0.13700
C1489       C  0.78948587  0.36891462  0.57555108     0.85500
C1490       C  0.83544083  0.35687081  0.54465367    -0.54800
C1491       C  0.82860871  0.32920388  0.51404360     0.08400
C1492       C  0.77697062  0.31268512  0.52607000     0.19300
C1493       C  0.73955212  0.36786572  0.53678531    -0.55500
C1494       C  0.73280916  0.33938039  0.00822509     0.08500
C1495       C  0.78160020  0.34138009  0.61341455    -0.55000
C1496       C  0.77758046  0.31121637  0.59037314     0.09100
H1497       H  0.86677161  0.37296902  0.53925316     0.13600
H1498       H  0.77211003  0.28885964  0.00495211    -0.00700
H1499       H  0.97581579  0.38929992  0.52367127     0.13900
H1500       H  0.77672567  0.34606646  0.65512831     0.13700
C1501       C  0.92212914  0.22528844  0.82489301     0.85500
C1502       C  0.91839667  0.25368987  0.86475706    -0.54800
C1503       C  0.90640971  0.28380245  0.84249248     0.08400
C1504       C  0.90287469  0.28248032  0.77827955     0.19300
C1505       C  0.87100861  0.22877234  0.78828725    -0.55500
C1506       C  0.86108053  0.25727303  0.76036494     0.08500
C1507       C  0.96582091  0.23558836  0.79238623    -0.55000
C1508       C  0.95595154  0.26468910  0.76462401     0.09100
H1509       H  0.92765846  0.25055932  0.90728775     0.13600
H1510       H  0.89476864  0.30648362  0.75811116    -0.00700
H1511       H  0.84560253  0.20865868  0.78284720     0.13900
H1512       H  0.74970054  0.21863402  0.78122596     0.13700
C1513       C  0.88183024  0.37151782  0.89923905     0.85500
C1514       C  0.83949449  0.36039199  0.93287172    -0.54800
C1515       C  0.84994078  0.33110441  0.95926347     0.08400
C1516       C  0.90249106  0.31375170  0.94353522     0.19300
C1517       C  0.93431442  0.36730998  0.93416918    -0.55500
C1518       C  0.94470116  0.33858605  0.96122107     0.08500
C1519       C  0.88758391  0.34426291  0.85764912    -0.55000
C1520       C  0.89838494  0.31353287  0.87892370     0.09100
H1521       H  0.80673763  0.37701334  0.94123281     0.13600
H1522       H  0.91091250  0.28967769  0.96337686    -0.00700
H1523       H  0.96237882  0.38613774  0.93670700     0.13900
H1524       H  0.88452191  0.34919317  0.81509671     0.13700
O1525       O  0.87672768  0.50655553  0.67634224    -0.74000
O1526       O  0.91438228  0.57855977  0.77758183    -0.74900
O1527       O  0.89971490  0.50932620  0.78646746    -0.63600
O1528       O  0.88757798  0.57624896  0.66804576    -0.72000
O1529       O  0.80339197  0.58348444  0.67909127    -0.71500
O1530       O  0.81636447  0.52099438  0.79960812    -0.62800
O1531       O  0.83080995  0.58965983  0.78953121    -0.75300
O1532       O  0.79265162  0.51451680  0.69016469    -0.74100
Cu1533     Cu  0.89757826  0.54234581  0.72674434     1.04600
Cu1534     Cu  0.80794843  0.55263711  0.73989870     1.04300
C1535       C  0.82983549  0.49747993  0.67074315     0.92200
C1536       C  0.87895538  0.59670508  0.79740885     0.91400
C1537       C  0.85848976  0.50298422  0.80847280     0.83500
C1538       C  0.84300457  0.59178151  0.65692619     0.89800
O1539       O  0.92878338  0.08001916  0.93679425    -0.74000
O1540       O  0.96707485  0.00861365  0.54489697    -0.74900
O1541       O  0.94852717  0.07811848  0.54782779    -0.63600
O1542       O  0.94378317  0.00824611  0.93539984    -0.72000
O1543       O  0.77693796  0.01124872  0.92617826    -0.71500
O1544       O  0.78049287  0.08534811  0.53373809    -0.62800
O1545       O  0.79831206  0.01611295  0.53758574    -0.75300
O1546       O  0.76270435  0.08257428  0.92264702    -0.74100
Cu1547     Cu  0.94405210  0.04363613  0.99128499     1.04600
Cu1548     Cu  0.78247836  0.04896172  0.97958295     1.04300
C1549       C  0.96561240  0.09423173  0.91708113     0.92200
C1550       C  0.76243402  0.00007993  0.55477870     0.91400
C1551       C  0.73866143  0.09437861  0.55504748     0.83500
C1552       C  0.98611978  0.99669008  0.91775981     0.89800
C1553       C  0.82752294  0.41625007  0.84128378    -0.02900
C1554       C  0.87005762  0.40733404  0.87966045     0.06800
C1555       C  0.89774040  0.43371334  0.90438924    -0.03000
C1556       C  0.89829404  0.46368354  0.87848479    -0.03000
C1557       C  0.85776964  0.47227829  0.83906105     0.06900
C1558       C  0.81906477  0.44937349  0.82491618    -0.03200
Br1559     Br  0.75555754  0.46255881  0.78214174    -0.01700
Br1560     Br  0.77938464  0.38427633  0.81240639    -0.01800
Br1561     Br  0.95015680  0.49430279  0.90305943    -0.01800
Br1562     Br  0.90860990  0.43731074  0.98064462    -0.01700
C1563       C  0.92909481  0.18380358  0.90096619    -0.02900
C1564       C  0.93063984  0.18980116  0.84640402     0.06800
C1565       C  0.93703320  0.16148102  0.81256711    -0.03000
C1566       C  0.94528658  0.12956961  0.83484740    -0.03000
C1567       C  0.95396204  0.12626337  0.89048460     0.06900
C1568       C  0.95187815  0.15460202  0.92238209    -0.03200
Br1569     Br  0.00660069  0.16017277  0.97787944    -0.01700
Br1570     Br  0.87158615  0.20262600  0.93677320    -0.01800
Br1571     Br  0.94852356  0.09069032  0.79034130    -0.01800
Br1572     Br  0.93030340  0.16431223  0.73632627    -0.01700
C1573       C  0.84314803  0.43662228  0.67083527    -0.02900
C1574       C  0.81991309  0.46539540  0.64586120     0.06800
C1575       C  0.79045516  0.46331961  0.59619656    -0.03000
C1576       C  0.78482391  0.43254586  0.57121723    -0.03000
C1577       C  0.79950991  0.40285554  0.60050996     0.06900
C1578       C  0.83231684  0.40549009  0.64943603    -0.03200
Br1579     Br  0.87218031  0.36783583  0.68353363    -0.01700
Br1580     Br  0.89573243  0.43938077  0.73079408    -0.01800
Br1581     Br  0.94662316  0.41805064  0.60979556    -0.01800
Br1582     Br  0.97790613  0.49429094  0.58925287    -0.01700
C1583       C  0.78355855  0.16069030  0.65112818    -0.02900
C1584       C  0.75458152  0.18890462  0.62751167     0.06800
C1585       C  0.95781446  0.18162862  0.59621859    -0.03000
C1586       C  0.94855382  0.14907440  0.57983959    -0.03000
C1587       C  0.73804123  0.12455348  0.58807083     0.06900
C1588       C  0.78028312  0.12994585  0.62612636    -0.03200
Br1589     Br  0.82933688  0.09386936  0.64992183    -0.01700
Br1590     Br  0.80545187  0.15766556  0.72664930    -0.01800
Br1591     Br  0.88385517  0.13982487  0.03815219    -0.01800
Br1592     Br  0.90579002  0.21627863  0.57328909    -0.01700
C1593       C  0.86659180  0.65726171  0.81377931    -0.02900
C1594       C  0.89477725  0.62726240  0.82581726     0.06800
C1595       C  0.94222340  0.62717897  0.85913221    -0.03000
C1596       C  0.96272790  0.65692995  0.87881362    -0.03000
C1597       C  0.93714903  0.68808057  0.86174919     0.06900
C1598       C  0.88826344  0.68722274  0.82862168    -0.03200
Br1599     Br  0.84592663  0.72680919  0.80508074    -0.01700
Br1600     Br  0.79609119  0.65808401  0.77942078    -0.01800
Br1601     Br  0.77614219  0.65063629  0.92310662    -0.01800
Br1602     Br  0.97657009  0.58521774  0.88219249    -0.01700
C1603       C  0.96294044  0.93804028  0.91150443    -0.02900
C1604       C  0.98591480  0.96435665  0.88952649     0.06800
C1605       C  0.00973704  0.95870277  0.84244518    -0.03000
C1606       C  0.01419453  0.92637591  0.82091394    -0.03000
C1607       C  0.98529500  0.90030869  0.84032969     0.06900
C1608       C  0.95415779  0.90929834  0.88246488    -0.03200
Br1609     Br  0.89472032  0.88575739  0.90034333    -0.01700
Br1610     Br  0.96059854  0.93510764  0.98644259    -0.01800
Br1611     Br  0.81481925  0.92188604  0.76989277    -0.01800
Br1612     Br  0.78507808  0.99562680  0.80648696    -0.01700
C1613       C  0.81068610  0.68038921  0.61907684    -0.02900
C1614       C  0.85184458  0.68666138  0.58649192     0.06800
C1615       C  0.87729601  0.65828267  0.56397828    -0.03000
C1616       C  0.87330925  0.62668081  0.58513792    -0.03000
C1617       C  0.83845397  0.62201474  0.62358457     0.06900
C1618       C  0.80225732  0.64814492  0.63402503    -0.03200
Br1619     Br  0.73655218  0.63982945  0.66172443    -0.01700
Br1620     Br  0.75961153  0.71438836  0.63948475    -0.01800
Br1621     Br  0.90980377  0.58863823  0.55582110    -0.01800
Br1622     Br  0.90765733  0.65911553  0.49729942    -0.01700
C1623       C  0.00164443  0.95917116  0.62514880    -0.02900
C1624       C  0.77700639  0.96856499  0.58266754     0.06800
C1625       C  0.81342808  0.94597831  0.56177185    -0.03000
C1626       C  0.82230804  0.91393227  0.58204600    -0.03000
C1627       C  0.78823270  0.90139585  0.61746471     0.06900
C1628       C  0.00258544  0.92574980  0.63921475    -0.03200
Br1629     Br  0.95321837  0.91796556  0.68839727    -0.01700
Br1630     Br  0.96064942  0.99295973  0.66091714    -0.01800
Br1631     Br  0.88448901  0.88927139  0.56212685    -0.01800
Br1632     Br  0.84103574  0.95587942  0.49586347    -0.01700
loop_ 
_geom_bond_atom_site_label_1 
_geom_bond_atom_site_label_2 
_geom_bond_distance 
_geom_bond_site_symmetry_2 
_ccdc_geom_bond_type 
C1            C2   1.537       .  S
C1            C7   1.527       .  S
C1            C5   1.537       .  S
C1          C199   1.565       .  S
C2            C3   1.371       .  D
C2         H1233   1.071   1_455  S
C3            C4   1.573       .  S
C3         C1251   1.521       .  S
C4            C8   1.608       .  S
C4            C6   1.550       .  S
C4           H10   1.106       .  S
C5            C6   1.365       .  D
C5           H11   1.070       .  S
C6           C30   1.545       .  S
C7            C8   1.362       .  D
C7           H12   1.084       .  S
C8           C15   1.522       .  S
H9          C410   1.073       .  S
C13          C14   1.515       .  S
C13          C19   1.546       .  S
C13          C17   1.526       .  S
C13         C186   1.552       .  S
C14          C15   1.359       .  D
C14          H21   1.082       .  S
C15          C16   1.610       .  S
C16          C20   1.572       .  S
C16         C222   1.556   1_554  S
C16         H226   1.108   1_554  S
C17         C222   1.355   1_554  D
C17        H1247   1.087       .  S
C18         C220   1.556       .  S
C18         C221   1.355       .  D
C18        C1266   1.525       .  S
C19          C20   1.382       .  D
C19          H24   1.078       .  S
C20         C248   1.531   1_554  S
H22         C220   1.108       .  S
H23         C425   1.088       .  S
C25          C26   1.531       .  S
C25          C31   1.524       .  S
C25          C29   1.538       .  S
C25         C179   1.565       .  S
C26          C27   1.374       .  D
C26         H441   1.069       .  S
C27          C28   1.573       .  S
C27         C411   1.521       .  S
C28          C32   1.605       .  S
C28          C30   1.552       .  S
C28          H34   1.107       .  S
C29          C30   1.369       .  D
C29          H35   1.071       .  S
C31          C32   1.361       .  D
C31          H36   1.083       .  S
C32          C39   1.521       .  S
H33        C1250   1.070       .  S
C37          C38   1.520       .  S
C37          C43   1.532       .  S
C37          C41   1.549       .  S
C37         C169   1.572       .  S
C38          C39   1.366       .  D
C38          H45   1.083       .  S
C39          C40   1.613       .  S
C40          C44   1.564       .  S
C40          C42   1.545       .  S
C40          H46   1.107       .  S
C41          C42   1.375       .  D
C41          H47   1.068       .  S
C42         C426   1.529       .  S
C43          C44   1.360       .  D
C43          H48   1.085       .  S
C44         C224   1.531       .  S
C49          C50   1.525       .  S
C49          C55   1.521   1_455  S
C49          C53   1.538       .  S
C49         C156   1.548       .  S
C50          C51   1.373       .  D
C50          H57   1.084       .  S
C51          C52   1.617       .  S
C51          C68   1.523       .  S
C52          C56   1.568   1_455  S
C52          C54   1.545       .  S
C52          H58   1.106       .  S
C53          C54   1.367       .  D
C53          H59   1.078       .  S
C54          C78   1.524       .  S
C55          C56   1.355       .  D
C55        H1284   1.078       .  S
C56        C1304   1.525       .  S
H60         C463   1.079       .  S
C61          C62   1.534       .  S
C61          C67   1.507       .  S
C61          C65   1.536   1_455  S
C61         C149   1.546       .  S
C62          C63   1.370       .  D
C62          H69   1.084       .  S
C63          C64   1.580       .  S
C63         C291   1.532   1_554  S
C64          C68   1.612       .  S
C64         C270   1.547   1_455  S
C64         H274   1.108       .  S
C65         C270   1.368       .  D
C65        H1295   1.067       .  S
C66         C268   1.547   1_655  S
C66         C269   1.368       .  D
C66        C1314   1.528       .  S
C67          C68   1.361       .  D
C67          H72   1.082       .  S
H70         C268   1.108       .  S
H71         C473   1.081       .  S
C73          C74   1.523       .  S
C73          C79   1.532       .  S
C73          C77   1.518       .  S
C73         C136   1.540       .  S
C74          C75   1.361       .  D
C74          H81   1.078       .  S
C75          C76   1.608       .  S
C75          C92   1.523       .  S
C76          C80   1.572       .  S
C76          C78   1.559       .  S
C76          H82   1.108       .  S
C77          C78   1.359       .  D
C77          H83   1.076       .  S
C79          C80   1.380       .  D
C79         H492   1.085       .  S
C80         C464   1.527       .  S
H84        C1303   1.086       .  S
C85          C86   1.531       .  S
C85          C91   1.526       .  S
C85          C89   1.535       .  S
C85         C126   1.545       .  S
C86          C87   1.376       .  D
C86          H93   1.082       .  S
C87          C88   1.568       .  S
C87         C267   1.532       .  S
C88          C92   1.607       .  S
C88          C90   1.551       .  S
C88          H94   1.106       .  S
C89          C90   1.365       .  D
C89          H95   1.081       .  S
C90         C474   1.522       .  S
C91          C92   1.363       .  D
C91          H96   1.082       .  S
O97        Cu105   1.986       .  S
O97         C107   1.270       .  A
O98        Cu105   1.990       .  S
O98         C108   1.275       .  A
O99        Cu105   2.050       .  S
O99         C109   1.284       .  A
O100       Cu105   2.026       .  S
O100        C110   1.281       .  A
O101       Cu106   1.973       .  S
O101        C110   1.270       .  A
O102       Cu106   1.988       .  S
O102        C109   1.272       .  A
O103       Cu106   2.044       .  S
O103        C108   1.283       .  A
O104       Cu106   2.023       .  S
O104        C107   1.283       .  A
Cu105      Cu106   2.360       .  S
C107        C146   1.497       .  S
C108        C166   1.501       .  S
C109        C129   1.485       .  S
C110        C189   1.487       .  S
O111       Cu119   2.027       .  S
O111        C121   1.281       .  A
O112       Cu323   2.004   1_554  S
O112        C530   1.279       .  A
O113       Cu323   1.992   1_554  S
O113        C531   1.273       .  A
O114       Cu119   2.001       .  S
O114        C124   1.276   1_545  A
O115       Cu120   2.035       .  S
O115       C1348   1.283   1_445  A
O116       Cu324   2.005   1_554  S
O116        C123   1.280   1_455  A
O117       Cu324   1.983   1_554  S
O117        C122   1.273       .  A
O118       Cu120   2.000       .  S
O118       C1345   1.274   1_455  A
Cu119       O316   2.004       .  S
Cu119       O317   1.992       .  S
Cu119      Cu528   2.370       .  S
Cu120       O320   2.005       .  S
Cu120       O321   1.983       .  S
Cu120     Cu1343   2.372   1_455  S
C121        O526   1.274       .  A
C121        C139   1.475       .  S
C122       O1336   1.279   1_455  A
C122        C196   1.475   1_545  S
C123       O1337   1.272       .  A
C123        C159   1.473       .  S
C124        O523   1.282   1_565  A
C124        C176   1.486       .  S
C125        C126   1.411       .  A
C125        C130   1.410       .  A
C125       Br132   1.937       .  S
C126        C127   1.425       .  A
C127        C128   1.409       .  A
C127       Br134   1.929       .  S
C128        C129   1.400       .  A
C128       Br133   1.927       .  S
C129        C130   1.416       .  A
C130       Br131   1.909       .  S
C135        C136   1.397       .  A
C135        C140   1.383       .  A
C135       Br142   1.921       .  S
C136        C137   1.434       .  A
C137        C138   1.418       .  A
C137       Br144   1.911       .  S
C138        C139   1.400       .  A
C138       Br143   1.929       .  S
C139        C140   1.399       .  A
C140       Br141   1.896       .  S
C145        C146   1.424       .  A
C145        C150   1.409       .  A
C145       Br152   1.911       .  S
C146        C147   1.406       .  A
C147        C148   1.402       .  A
C147      Br1378   1.935   1_455  S
C148        C149   1.414       .  A
C148      Br1377   1.908   1_455  S
C149        C150   1.409       .  A
C150       Br151   1.940       .  S
Br153       C556   1.931   1_556  S
Br154       C555   1.934       .  S
C155        C156   1.433       .  A
C155        C160   1.399       .  A
C155       Br162   1.926       .  S
C156       C1381   1.421   1_455  A
C157        C158   1.412       .  A
C157        C564   1.421       .  A
C157       Br164   1.936       .  S
C158        C567   1.412       .  A
C158       Br367   1.922       .  S
C159        C160   1.394   1_655  A
C159       C1382   1.412       .  A
C160       Br161   1.936       .  S
Br163       C362   1.922       .  S
C165        C166   1.408       .  A
C165        C170   1.412       .  A
C165       Br172   1.922       .  S
C166        C167   1.406       .  A
C167        C168   1.420       .  A
C167       Br174   1.946       .  S
C168        C169   1.446       .  A
C168       Br581   1.936       .  S
C169        C170   1.436       .  A
C170       Br171   1.951       .  S
Br173      C1392   1.940   1_455  S
C175        C176   1.400       .  A
C175        C180   1.388       .  A
C175       Br182   1.890       .  S
C176        C177   1.393       .  A
C177        C178   1.420       .  A
C177       Br592   1.940       .  S
C178        C179   1.450       .  A
C178       Br591   1.903       .  S
C179        C180   1.419       .  A
C180       Br181   1.942       .  S
Br183      C1402   1.905       .  S
Br184      C1401   1.939       .  S
C185        C186   1.437       .  A
C185        C190   1.404       .  A
C185       Br192   1.950       .  S
C186        C187   1.436       .  A
C187        C188   1.414       .  A
C187       Br194   1.918       .  S
C188        C189   1.399       .  A
C188       Br193   1.939       .  S
C189        C190   1.406       .  A
C190       Br191   1.937   1_455  S
C195        C200   1.413       .  A
C195        C604   1.391       .  A
C195       Br202   1.948       .  S
C196        C197   1.404       .  A
C196       C1419   1.389       .  A
C197        C198   1.404       .  A
C197       Br204   1.919   1_554  S
C198        C199   1.429       .  A
C198       Br203   1.940       .  S
C199       C1424   1.445       .  A
C200        C607   1.445       .  A
C200       Br201   1.897       .  S
C205        C206   1.537       .  S
C205        C211   1.527       .  S
C205        C209   1.537       .  S
C205        C403   1.565       .  S
C206        C207   1.371       .  D
C206       H1437   1.071   1_455  S
C207        C208   1.573       .  S
C207       C1455   1.521       .  S
C208        C212   1.608       .  S
C208        C210   1.550       .  S
C208        H214   1.106       .  S
C209        C210   1.365       .  D
C209        H215   1.070       .  S
C210        C234   1.545       .  S
C211        C212   1.362       .  D
C211        H216   1.084       .  S
C212        C219   1.522       .  S
H213        C614   1.073       .  S
C217        C218   1.515       .  S
C217        C223   1.546       .  S
C217        C221   1.526       .  S
C217        C390   1.552       .  S
C218        C219   1.359       .  D
C218        H225   1.082       .  S
C219        C220   1.610       .  S
C220        C224   1.572       .  S
C221       H1451   1.087       .  S
C222       C1470   1.525       .  S
C223        C224   1.382       .  D
C223        H228   1.078       .  S
H227        C629   1.088       .  S
C229        C230   1.531       .  S
C229        C235   1.524       .  S
C229        C233   1.538       .  S
C229        C383   1.565       .  S
C230        C231   1.374       .  D
C230        H645   1.069       .  S
C231        C232   1.573       .  S
C231        C615   1.521       .  S
C232        C236   1.605       .  S
C232        C234   1.552       .  S
C232        H238   1.107       .  S
C233        C234   1.369       .  D
C233        H239   1.071       .  S
C235        C236   1.361       .  D
C235        H240   1.082       .  S
C236        C243   1.521       .  S
H237       C1454   1.070       .  S
C241        C242   1.520       .  S
C241        C247   1.532       .  S
C241        C245   1.549       .  S
C241        C373   1.572       .  S
C242        C243   1.366       .  D
C242        H249   1.083       .  S
C243        C244   1.613       .  S
C244        C248   1.564       .  S
C244        C246   1.545       .  S
C244        H250   1.107       .  S
C245        C246   1.375       .  D
C245        H251   1.068       .  S
C246        C630   1.529       .  S
C247        C248   1.360       .  D
C247        H252   1.085       .  S
C253        C254   1.525       .  S
C253        C259   1.521   1_455  S
C253        C257   1.538       .  S
C253        C360   1.548       .  S
C254        C255   1.373       .  D
C254        H261   1.084       .  S
C255        C256   1.617       .  S
C255        C272   1.523       .  S
C256        C260   1.568   1_455  S
C256        C258   1.545       .  S
C256        H262   1.106       .  S
C257        C258   1.367       .  D
C257        H263   1.078       .  S
C258        C282   1.524       .  S
C259        C260   1.355       .  D
C259       H1488   1.078       .  S
C260       C1508   1.525       .  S
H264        C667   1.079       .  S
C265        C266   1.534       .  S
C265        C271   1.507       .  S
C265        C269   1.536   1_455  S
C265        C353   1.546       .  S
C266        C267   1.370       .  D
C266        H273   1.084       .  S
C267        C268   1.580       .  S
C268        C272   1.612       .  S
C269       H1499   1.067       .  S
C270       C1518   1.528   1_554  S
C271        C272   1.361       .  D
C271        H276   1.082       .  S
H275        C677   1.081       .  S
C277        C278   1.523       .  S
C277        C283   1.532       .  S
C277        C281   1.518       .  S
C277        C340   1.540       .  S
C278        C279   1.361       .  D
C278        H285   1.078       .  S
C279        C280   1.608       .  S
C279        C296   1.523       .  S
C280        C284   1.572       .  S
C280        C282   1.559       .  S
C280        H286   1.108       .  S
C281        C282   1.359       .  D
C281        H287   1.076       .  S
C283        C284   1.380       .  D
C283        H696   1.085       .  S
C284        C668   1.527       .  S
H288       C1507   1.086       .  S
C289        C290   1.531       .  S
C289        C295   1.526       .  S
C289        C293   1.535       .  S
C289        C330   1.545       .  S
C290        C291   1.376       .  D
C290        H297   1.082       .  S
C291        C292   1.568       .  S
C292        C296   1.607       .  S
C292        C294   1.551       .  S
C292        H298   1.106       .  S
C293        C294   1.365       .  D
C293        H299   1.081       .  S
C294        C678   1.522   1_556  S
C295        C296   1.363       .  D
C295        H300   1.082       .  S
O301       Cu309   1.986       .  S
O301        C311   1.270       .  A
O302       Cu309   1.990       .  S
O302        C312   1.275       .  A
O303       Cu309   2.050       .  S
O303        C313   1.284       .  A
O304       Cu309   2.026       .  S
O304        C314   1.281       .  A
O305       Cu310   1.973       .  S
O305        C314   1.270       .  A
O306       Cu310   1.988       .  S
O306        C313   1.272       .  A
O307       Cu310   2.044       .  S
O307        C312   1.283       .  A
O308       Cu310   2.023       .  S
O308        C311   1.283       .  A
Cu309      Cu310   2.360       .  S
C311        C350   1.497       .  S
C312        C370   1.501       .  S
C313        C333   1.485       .  S
C314        C393   1.487       .  S
O315       Cu323   2.027       .  S
O315        C325   1.281       .  A
O316        C734   1.279       .  A
O317        C735   1.273       .  A
O318       Cu323   2.001       .  S
O318        C328   1.276   1_545  A
O319       Cu324   2.035       .  S
O319       C1552   1.283   1_445  A
O320        C327   1.280   1_455  A
O321        C326   1.273       .  A
O322       Cu324   2.000       .  S
O322       C1549   1.274   1_455  A
Cu323      Cu732   2.370       .  S
Cu324     Cu1547   2.372   1_455  S
C325        O730   1.274       .  A
C325        C343   1.475       .  S
C326       O1540   1.279   1_455  A
C326        C400   1.475   1_545  S
C327       O1541   1.272       .  A
C327        C363   1.473       .  S
C328        O727   1.282   1_565  A
C328        C380   1.486       .  S
C329        C330   1.411       .  A
C329        C334   1.410       .  A
C329       Br336   1.937       .  S
C330        C331   1.425       .  A
C331        C332   1.409       .  A
C331       Br338   1.929       .  S
C332        C333   1.400       .  A
C332       Br337   1.927       .  S
C333        C334   1.416       .  A
C334       Br335   1.909       .  S
C339        C340   1.397       .  A
C339        C344   1.383       .  A
C339       Br346   1.921       .  S
C340        C341   1.434       .  A
C341        C342   1.418       .  A
C341       Br348   1.911       .  S
C342        C343   1.400       .  A
C342       Br347   1.929       .  S
C343        C344   1.399       .  A
C344       Br345   1.896       .  S
C349        C350   1.424       .  A
C349        C354   1.409       .  A
C349       Br356   1.911       .  S
C350        C351   1.406       .  A
C351        C352   1.402       .  A
C351      Br1582   1.935   1_455  S
C352        C353   1.414       .  A
C352      Br1581   1.908   1_455  S
C353        C354   1.409       .  A
C354       Br355   1.940       .  S
Br357       C760   1.931       .  S
Br358       C759   1.934       .  S
C359        C360   1.433       .  A
C359        C364   1.399       .  A
C359       Br366   1.926       .  S
C360       C1585   1.421   1_455  A
C361        C768   1.421       .  A
C361        C362   1.412       .  A
C361       Br368   1.936       .  S
C362        C771   1.412       .  A
C363       C1586   1.412       .  A
C363        C364   1.394   1_655  A
C364       Br365   1.936       .  S
C369        C370   1.408       .  A
C369        C374   1.412       .  A
C369       Br376   1.922       .  S
C370        C371   1.406       .  A
C371        C372   1.420       .  A
C371       Br378   1.946       .  S
C372        C373   1.446       .  A
C372       Br785   1.936       .  S
C373        C374   1.436       .  A
C374       Br375   1.951       .  S
Br377      C1596   1.940   1_455  S
C379        C380   1.400       .  A
C379        C384   1.388       .  A
C379       Br386   1.890       .  S
C380        C381   1.393       .  A
C381        C382   1.420       .  A
C381       Br796   1.940       .  S
C382        C383   1.450       .  A
C382       Br795   1.903       .  S
C383        C384   1.419       .  A
C384       Br385   1.942       .  S
Br387      C1606   1.905       .  S
Br388      C1605   1.939       .  S
C389        C390   1.437       .  A
C389        C394   1.404       .  A
C389       Br396   1.950       .  S
C390        C391   1.436       .  A
C391        C392   1.414       .  A
C391       Br398   1.918       .  S
C392        C393   1.399       .  A
C392       Br397   1.939       .  S
C393        C394   1.406       .  A
C394       Br395   1.937   1_455  S
C399        C808   1.391       .  A
C399        C404   1.413       .  A
C399       Br406   1.948       .  S
C400       C1623   1.389       .  A
C400        C401   1.404       .  A
C401        C402   1.404       .  A
C401       Br408   1.919       .  S
C402        C403   1.429       .  A
C402       Br407   1.940       .  S
C403       C1628   1.445       .  A
C404        C811   1.445       .  A
C404       Br405   1.897       .  S
C409        C410   1.536       .  S
C409        C415   1.528       .  S
C409        C413   1.538       .  S
C409        C607   1.569       .  S
C410        C411   1.370       .  D
C411        C412   1.575       .  S
C412        C416   1.612       .  S
C412        C414   1.555       .  S
C412        H418   1.106       .  S
C413        C414   1.367       .  D
C413        H419   1.061       .  S
C414        C438   1.555       .  S
C415        C416   1.363       .  D
C415        H420   1.084       .  S
C416        C423   1.527       .  S
H417        C818   1.071       .  S
C421        C422   1.517       .  S
C421        C427   1.551       .  S
C421        C425   1.523       .  S
C421        C594   1.555       .  S
C422        C423   1.359       .  D
C422        H429   1.082       .  S
C423        C424   1.612       .  S
C424        C428   1.570       .  S
C424        C630   1.563   1_554  S
C424        H634   1.108   1_554  S
C425        C630   1.355   1_554  D
C426        C628   1.563       .  S
C426        C629   1.355       .  D
C427        C428   1.386       .  D
C427        H432   1.081       .  S
C428        C656   1.535   1_554  S
H430        C628   1.108       .  S
H431        C833   1.087       .  S
C433        C434   1.532       .  S
C433        C439   1.523       .  S
C433        C437   1.541       .  S
C433        C587   1.566       .  S
C434        C435   1.374       .  D
C434        H849   1.070       .  S
C435        C436   1.574       .  S
C435        C819   1.521       .  S
C436        C440   1.609       .  S
C436        C438   1.554       .  S
C436        H442   1.107       .  S
C437        C438   1.372       .  D
C437        H443   1.061       .  S
C439        C440   1.357       .  D
C439        H444   1.083       .  S
C440        C447   1.521       .  S
C445        C446   1.515       .  S
C445        C451   1.531       .  S
C445        C449   1.540       .  S
C445        C577   1.555       .  S
C446        C447   1.360       .  D
C446        H453   1.083       .  S
C447        C448   1.618       .  S
C448        C452   1.570       .  S
C448        C450   1.550       .  S
C448        H454   1.108       .  S
C449        C450   1.373       .  D
C449        H455   1.071       .  S
C450        C834   1.525       .  S
C451        C452   1.357       .  D
C451        H456   1.086       .  S
C452        C632   1.535       .  S
C457        C458   1.527       .  S
C457        C463   1.526       .  S
C457        C461   1.540       .  S
C457        C564   1.549       .  S
C458        C459   1.370       .  D
C458        H465   1.084       .  S
C459        C460   1.622       .  S
C459        C476   1.529       .  S
C460        C464   1.568       .  S
C460        C462   1.549       .  S
C460        H466   1.106       .  S
C461        C462   1.366       .  D
C461        H467   1.078       .  S
C462        C486   1.530       .  S
C463        C464   1.357       .  D
H468        C871   1.078       .  S
C469        C470   1.529       .  S
C469        C475   1.516       .  S
C469        C473   1.530       .  S
C469        C557   1.537       .  S
C470        C471   1.367       .  D
C470        H477   1.088       .  S
C471        C472   1.579       .  S
C471        C699   1.535   1_554  S
C472        C476   1.614       .  S
C472        C678   1.559       .  S
C472        H682   1.108       .  S
C473        C678   1.368       .  D
C474        C676   1.559       .  S
C474        C677   1.368       .  D
C475        C476   1.358       .  D
C475        H480   1.080       .  S
H478        C676   1.108       .  S
H479        C881   1.067       .  S
C481        C482   1.526       .  S
C481        C487   1.533       .  S
C481        C485   1.523       .  S
C481        C544   1.547       .  S
C482        C483   1.361       .  D
C482        H489   1.077       .  S
C483        C484   1.605       .  S
C483        C500   1.526       .  S
C484        C488   1.570       .  S
C484        C486   1.559       .  S
C484        H490   1.107       .  S
C485        C486   1.363       .  D
C485        H491   1.077       .  S
C487        C488   1.381       .  D
C487        H900   1.086       .  S
C488        C872   1.525       .  S
C493        C494   1.534       .  S
C493        C499   1.526       .  S
C493        C497   1.532       .  S
C493        C534   1.550       .  S
C494        C495   1.372       .  D
C494        H501   1.083       .  S
C495        C496   1.568       .  S
C495        C675   1.535       .  S
C496        C500   1.614       .  S
C496        C498   1.555       .  S
C496        H502   1.106       .  S
C497        C498   1.361       .  D
C497        H503   1.081       .  S
C498        C882   1.528       .  S
C499        C500   1.371       .  D
C499        H504   1.083       .  S
O505       Cu513   1.981       .  S
O505        C515   1.273       .  A
O506       Cu513   1.978       .  S
O506        C516   1.273       .  A
O507       Cu513   2.023       .  S
O507        C517   1.283       .  A
O508       Cu513   2.020       .  S
O508        C518   1.280       .  A
O509       Cu514   1.980       .  S
O509        C518   1.272       .  A
O510       Cu514   1.977       .  S
O510        C517   1.271       .  A
O511       Cu514   2.021       .  S
O511        C516   1.280       .  A
O512       Cu514   2.013       .  S
O512        C515   1.279       .  A
Cu513      Cu514   2.367       .  S
C515        C554   1.468       .  S
C516        C574   1.485       .  S
C517        C537   1.480       .  S
C518        C597   1.491       .  S
O519       Cu527   2.025       .  S
O519        C529   1.281       .  A
O520       Cu731   1.997   1_554  S
O520        C938   1.279       .  A
O521       Cu731   1.985   1_554  S
O521        C939   1.272       .  A
O522       Cu527   1.999       .  S
O522        C532   1.276   1_545  A
O523       Cu528   2.029       .  S
O524       Cu732   2.001   1_554  S
O524        C531   1.279       .  A
O525       Cu732   1.986   1_554  S
O525        C530   1.273       .  A
O526       Cu528   2.000       .  S
Cu527       O724   1.997       .  S
Cu527       O725   1.985       .  S
Cu527      Cu936   2.372       .  S
Cu528       O728   2.001       .  S
Cu528       O729   1.986       .  S
C529        O934   1.274       .  A
C529        C547   1.476       .  S
C530        C604   1.481   1_545  S
C531        C567   1.475       .  S
C532        O931   1.283   1_565  A
C532        C584   1.489       .  S
C533        C534   1.413       .  A
C533        C538   1.415       .  A
C533       Br540   1.934       .  S
C534        C535   1.426       .  A
C535        C536   1.394       .  A
C535       Br542   1.910       .  S
C536        C537   1.392       .  A
C536       Br541   1.930       .  S
C537        C538   1.420       .  A
C538       Br539   1.910       .  S
C543        C544   1.399       .  A
C543        C548   1.385       .  A
C543       Br550   1.920       .  S
C544        C545   1.436       .  A
C545        C546   1.419       .  A
C545       Br552   1.908       .  S
C546        C547   1.398       .  A
C546       Br551   1.930       .  S
C547        C548   1.399       .  A
C548       Br549   1.896       .  S
C553        C554   1.409       .  A
C553        C558   1.405       .  A
C553       Br560   1.923       .  S
C554        C555   1.395       .  A
C555        C556   1.404       .  A
C556        C557   1.436       .  A
C557        C558   1.423       .  A
C558       Br559   1.950       .  S
Br561       C964   1.908       .  S
Br562       C963   1.935       .  S
C563        C564   1.433       .  A
C563        C568   1.398       .  A
C563       Br570   1.924       .  S
C565        C972   1.421       .  A
C565        C566   1.412       .  A
C565       Br572   1.936       .  S
C566        C975   1.412       .  A
C566       Br775   1.924       .  S
C567        C568   1.395       .  A
C568       Br569   1.937       .  S
Br571       C770   1.924       .  S
C573        C574   1.403       .  A
C573        C578   1.403       .  A
C573       Br580   1.921       .  S
C574        C575   1.404       .  A
C575        C576   1.415       .  A
C575       Br582   1.944       .  S
C576        C577   1.444       .  A
C576       Br989   1.940       .  S
C577        C578   1.434       .  A
C578       Br579   1.954       .  S
C583        C584   1.401       .  A
C583        C588   1.390       .  A
C583       Br590   1.893       .  S
C584        C585   1.394       .  A
C585        C586   1.421       .  A
C585      Br1000   1.939       .  S
C586        C587   1.449       .  A
C586       Br999   1.905       .  S
C587        C588   1.420       .  A
C588       Br589   1.943       .  S
C593        C594   1.436       .  A
C593        C598   1.408       .  A
C593       Br600   1.949       .  S
C594        C595   1.432       .  A
C595        C596   1.414       .  A
C595       Br602   1.917   1_554  S
C596        C597   1.402       .  A
C596       Br601   1.939       .  S
C597        C598   1.410       .  A
C598       Br599   1.937       .  S
C603       C1012   1.389       .  A
C603        C608   1.411       .  A
C603       Br610   1.948       .  S
C604        C605   1.407       .  A
C605        C606   1.406       .  A
C605       Br612   1.921   1_554  S
C606        C607   1.428       .  A
C606       Br611   1.939       .  S
C608       C1015   1.445       .  A
C608       Br609   1.898       .  S
C613        C614   1.536       .  S
C613        C619   1.528       .  S
C613        C617   1.538       .  S
C613        C811   1.569       .  S
C614        C615   1.370       .  D
C615        C616   1.575       .  S
C616        C620   1.612       .  S
C616        C618   1.555       .  S
C616        H622   1.106       .  S
C617        C618   1.367       .  D
C617        H623   1.061       .  S
C618        C642   1.555       .  S
C619        C620   1.363       .  D
C619        H624   1.084       .  S
C620        C627   1.527       .  S
H621       C1022   1.071       .  S
C625        C626   1.517       .  S
C625        C631   1.551       .  S
C625        C629   1.523       .  S
C625        C798   1.555       .  S
C626        C627   1.359       .  D
C626        H633   1.082       .  S
C627        C628   1.612       .  S
C628        C632   1.570       .  S
C631        C632   1.386       .  D
C631        H636   1.081       .  S
H635       C1037   1.087       .  S
C637        C638   1.532       .  S
C637        C643   1.523       .  S
C637        C641   1.541       .  S
C637        C791   1.566       .  S
C638        C639   1.374       .  D
C638       H1053   1.070       .  S
C639        C640   1.574       .  S
C639       C1023   1.521       .  S
C640        C644   1.609       .  S
C640        C642   1.554       .  S
C640        H646   1.107       .  S
C641        C642   1.372       .  D
C641        H647   1.061       .  S
C643        C644   1.357       .  D
C643        H648   1.083       .  S
C644        C651   1.521       .  S
C649        C650   1.515       .  S
C649        C655   1.531       .  S
C649        C653   1.540       .  S
C649        C781   1.555       .  S
C650        C651   1.360       .  D
C650        H657   1.083       .  S
C651        C652   1.618       .  S
C652        C656   1.570       .  S
C652        C654   1.550       .  S
C652        H658   1.108       .  S
C653        C654   1.373       .  D
C653        H659   1.071       .  S
C654       C1038   1.525       .  S
C655        C656   1.357       .  D
C655        H660   1.086       .  S
C661        C662   1.527       .  S
C661        C667   1.526       .  S
C661        C665   1.540       .  S
C661        C768   1.549       .  S
C662        C663   1.370       .  D
C662        H669   1.084       .  S
C663        C664   1.622       .  S
C663        C680   1.529       .  S
C664        C668   1.568       .  S
C664        C666   1.549       .  S
C664        H670   1.106       .  S
C665        C666   1.366       .  D
C665        H671   1.078       .  S
C666        C690   1.530       .  S
C667        C668   1.357       .  D
H672       C1075   1.078       .  S
C673        C674   1.529       .  S
C673        C679   1.516       .  S
C673        C677   1.530       .  S
C673        C761   1.537       .  S
C674        C675   1.367       .  D
C674        H681   1.088       .  S
C675        C676   1.579       .  S
C676        C680   1.614       .  S
C679        C680   1.358       .  D
C679        H684   1.080       .  S
H683       C1085   1.067       .  S
C685        C686   1.526       .  S
C685        C691   1.533       .  S
C685        C689   1.523       .  S
C685        C748   1.547       .  S
C686        C687   1.361       .  D
C686        H693   1.077       .  S
C687        C688   1.605       .  S
C687        C704   1.526       .  S
C688        C692   1.570       .  S
C688        C690   1.559       .  S
C688        H694   1.107       .  S
C689        C690   1.363       .  D
C689        H695   1.077       .  S
C691        C692   1.381       .  D
C691       H1104   1.086       .  S
C692       C1076   1.525       .  S
C697        C698   1.534       .  S
C697        C703   1.526       .  S
C697        C701   1.532       .  S
C697        C738   1.550       .  S
C698        C699   1.372       .  D
C698        H705   1.083       .  S
C699        C700   1.568       .  S
C700        C704   1.614       .  S
C700        C702   1.555       .  S
C700        H706   1.106       .  S
C701        C702   1.361       .  D
C701        H707   1.081       .  S
C702       C1086   1.528   1_556  S
C703        C704   1.371       .  D
C703        H708   1.083       .  S
O709       Cu717   1.981       .  S
O709        C719   1.273       .  A
O710       Cu717   1.978       .  S
O710        C720   1.273       .  A
O711       Cu717   2.023       .  S
O711        C721   1.283       .  A
O712       Cu717   2.020       .  S
O712        C722   1.280       .  A
O713       Cu718   1.980       .  S
O713        C722   1.272       .  A
O714       Cu718   1.977       .  S
O714        C721   1.271       .  A
O715       Cu718   2.021       .  S
O715        C720   1.280       .  A
O716       Cu718   2.013       .  S
O716        C719   1.279       .  A
Cu717      Cu718   2.367       .  S
C719        C758   1.468       .  S
C720        C778   1.485       .  S
C721        C741   1.480       .  S
C722        C801   1.491       .  S
O723       Cu731   2.025       .  S
O723        C733   1.281       .  A
O724       C1142   1.279       .  A
O725       C1143   1.272       .  A
O726       Cu731   1.999       .  S
O726        C736   1.276   1_545  A
O727       Cu732   2.029       .  S
O728        C735   1.279       .  A
O729        C734   1.273       .  A
O730       Cu732   2.000       .  S
Cu731     Cu1140   2.372       .  S
C733       O1138   1.274       .  A
C733        C751   1.476       .  S
C734        C808   1.481   1_545  S
C735        C771   1.475       .  S
C736       O1135   1.283   1_565  A
C736        C788   1.489       .  S
C737        C738   1.413       .  A
C737        C742   1.415       .  A
C737       Br744   1.934       .  S
C738        C739   1.426       .  A
C739        C740   1.394       .  A
C739       Br746   1.910       .  S
C740        C741   1.392       .  A
C740       Br745   1.930       .  S
C741        C742   1.420       .  A
C742       Br743   1.910       .  S
C747        C748   1.399       .  A
C747        C752   1.385       .  A
C747       Br754   1.920       .  S
C748        C749   1.436       .  A
C749        C750   1.419       .  A
C749       Br756   1.908       .  S
C750        C751   1.398       .  A
C750       Br755   1.930       .  S
C751        C752   1.399       .  A
C752       Br753   1.896       .  S
C757        C758   1.409       .  A
C757        C762   1.405       .  A
C757       Br764   1.923       .  S
C758        C759   1.395       .  A
C759        C760   1.404       .  A
C760        C761   1.436       .  A
C761        C762   1.423       .  A
C762       Br763   1.950       .  S
Br765      C1168   1.908       .  S
Br766      C1167   1.935       .  S
C767        C768   1.433       .  A
C767        C772   1.398       .  A
C767       Br774   1.924       .  S
C769       C1176   1.421       .  A
C769        C770   1.412       .  A
C769       Br776   1.936       .  S
C770       C1179   1.412       .  A
C771        C772   1.395       .  A
C772       Br773   1.937       .  S
C777        C778   1.403       .  A
C777        C782   1.403       .  A
C777       Br784   1.921       .  S
C778        C779   1.404       .  A
C779        C780   1.415       .  A
C779       Br786   1.944       .  S
C780        C781   1.444       .  A
C780      Br1193   1.940       .  S
C781        C782   1.434       .  A
C782       Br783   1.954       .  S
C787        C788   1.401       .  A
C787        C792   1.390       .  A
C787       Br794   1.893       .  S
C788        C789   1.394       .  A
C789        C790   1.421       .  A
C789      Br1204   1.939       .  S
C790        C791   1.449       .  A
C790      Br1203   1.905       .  S
C791        C792   1.420       .  A
C792       Br793   1.943       .  S
C797        C798   1.436       .  A
C797        C802   1.408       .  A
C797       Br804   1.949       .  S
C798        C799   1.432       .  A
C799        C800   1.414       .  A
C799       Br806   1.917       .  S
C800        C801   1.402       .  A
C800       Br805   1.939       .  S
C801        C802   1.410       .  A
C802       Br803   1.937       .  S
C807       C1216   1.389       .  A
C807        C812   1.411       .  A
C807       Br814   1.948       .  S
C808        C809   1.407       .  A
C809        C810   1.406       .  A
C809       Br816   1.921       .  S
C810        C811   1.428       .  A
C810       Br815   1.939       .  S
C812       C1219   1.445       .  A
C812       Br813   1.898       .  S
C817        C818   1.537       .  S
C817        C823   1.527       .  S
C817        C821   1.537       .  S
C817       C1015   1.565       .  S
C818        C819   1.371       .  D
C819        C820   1.573       .  S
C820        C824   1.608       .  S
C820        C822   1.550       .  S
C820        H826   1.106       .  S
C821        C822   1.365       .  D
C821        H827   1.070       .  S
C822        C846   1.545       .  S
C823        C824   1.362       .  D
C823        H828   1.084       .  S
C824        C831   1.522       .  S
H825       C1226   1.073       .  S
C829        C830   1.515       .  S
C829        C835   1.546       .  S
C829        C833   1.526       .  S
C829       C1002   1.552       .  S
C830        C831   1.359       .  D
C830        H837   1.082       .  S
C831        C832   1.610       .  S
C832        C836   1.572       .  S
C832       C1038   1.556   1_554  S
C832       H1042   1.108   1_554  S
C833       C1038   1.355   1_554  D
C834       C1036   1.556       .  S
C834       C1037   1.355       .  D
C835        C836   1.382       .  D
C835        H840   1.078       .  S
C836       C1064   1.531   1_554  S
H838       C1036   1.108       .  S
H839       C1241   1.088       .  S
C841        C842   1.531       .  S
C841        C847   1.524       .  S
C841        C845   1.538       .  S
C841        C995   1.565       .  S
C842        C843   1.374       .  D
C842       H1257   1.069       .  S
C843        C844   1.573       .  S
C843       C1227   1.521       .  S
C844        C848   1.605       .  S
C844        C846   1.551       .  S
C844        H850   1.107       .  S
C845        C846   1.369       .  D
C845        H851   1.071       .  S
C847        C848   1.361       .  D
C847        H852   1.083       .  S
C848        C855   1.521       .  S
C853        C854   1.520       .  S
C853        C859   1.532       .  S
C853        C857   1.549       .  S
C853        C985   1.572       .  S
C854        C855   1.366       .  D
C854        H861   1.083       .  S
C855        C856   1.613       .  S
C856        C860   1.564       .  S
C856        C858   1.545       .  S
C856        H862   1.107       .  S
C857        C858   1.375       .  D
C857        H863   1.068       .  S
C858       C1242   1.529       .  S
C859        C860   1.360       .  D
C859        H864   1.085       .  S
C860       C1040   1.531       .  S
C865        C866   1.525       .  S
C865        C871   1.521       .  S
C865        C869   1.538       .  S
C865        C972   1.548       .  S
C866        C867   1.373       .  D
C866        H873   1.084       .  S
C867        C868   1.617       .  S
C867        C884   1.523       .  S
C868        C872   1.568       .  S
C868        C870   1.545       .  S
C868        H874   1.106       .  S
C869        C870   1.367       .  D
C869        H875   1.078       .  S
C870        C894   1.524       .  S
C871        C872   1.355       .  D
H876       C1279   1.079       .  S
C877        C878   1.534       .  S
C877        C883   1.507       .  S
C877        C881   1.536       .  S
C877        C965   1.546       .  S
C878        C879   1.370       .  D
C878        H885   1.084       .  S
C879        C880   1.580       .  S
C879       C1107   1.532   1_554  S
C880        C884   1.612       .  S
C880       C1086   1.547       .  S
C880       H1090   1.108       .  S
C881       C1086   1.368       .  D
C882       C1084   1.547       .  S
C882       C1085   1.368       .  D
C883        C884   1.361       .  D
C883        H888   1.082       .  S
H886       C1084   1.108       .  S
H887       C1289   1.081       .  S
C889        C890   1.523       .  S
C889        C895   1.532       .  S
C889        C893   1.518       .  S
C889        C952   1.540       .  S
C890        C891   1.361       .  D
C890        H897   1.078       .  S
C891        C892   1.608       .  S
C891        C908   1.523       .  S
C892        C896   1.572       .  S
C892        C894   1.559       .  S
C892        H898   1.108       .  S
C893        C894   1.359       .  D
C893        H899   1.076       .  S
C895        C896   1.380       .  D
C895       H1308   1.085       .  S
C896       C1280   1.527       .  S
C901        C902   1.531       .  S
C901        C907   1.526       .  S
C901        C905   1.535       .  S
C901        C942   1.545       .  S
C902        C903   1.376       .  D
C902        H909   1.082       .  S
C903        C904   1.568       .  S
C903       C1083   1.532       .  S
C904        C908   1.607       .  S
C904        C906   1.551       .  S
C904        H910   1.106       .  S
C905        C906   1.365       .  D
C905        H911   1.081       .  S
C906       C1290   1.522       .  S
C907        C908   1.363       .  D
C907        H912   1.082       .  S
O913       Cu921   1.986       .  S
O913        C923   1.270       .  A
O914       Cu921   1.990       .  S
O914        C924   1.275       .  A
O915       Cu921   2.050       .  S
O915        C925   1.284       .  A
O916       Cu921   2.026       .  S
O916        C926   1.281       .  A
O917       Cu922   1.973       .  S
O917        C926   1.270       .  A
O918       Cu922   1.988       .  S
O918        C925   1.272       .  A
O919       Cu922   2.044       .  S
O919        C924   1.283       .  A
O920       Cu922   2.023       .  S
O920        C923   1.283       .  A
Cu921      Cu922   2.360       .  S
C923        C962   1.497       .  S
C924        C982   1.501       .  S
C925        C945   1.485       .  S
C926       C1005   1.487       .  S
O927       Cu935   2.027       .  S
O927        C937   1.281       .  A
O928      Cu1139   2.004   1_554  S
O928       C1346   1.279       .  A
O929      Cu1139   1.992   1_554  S
O929       C1347   1.273       .  A
O930       Cu935   2.001       .  S
O930        C940   1.276   1_545  A
O931       Cu936   2.035       .  S
O932      Cu1140   2.005   1_554  S
O932        C939   1.280       .  A
O933      Cu1140   1.983   1_554  S
O933        C938   1.273       .  A
O934       Cu936   2.000       .  S
Cu935      O1132   2.004       .  S
Cu935      O1133   1.992       .  S
Cu935     Cu1344   2.370       .  S
Cu936      O1136   2.005       .  S
Cu936      O1137   1.983       .  S
C937       O1342   1.274       .  A
C937        C955   1.475       .  S
C938       C1012   1.475   1_545  S
C939        C975   1.473       .  S
C940       O1339   1.282   1_565  A
C940        C992   1.486       .  S
C941        C942   1.411       .  A
C941        C946   1.410       .  A
C941       Br948   1.937       .  S
C942        C943   1.425       .  A
C943        C944   1.409       .  A
C943       Br950   1.929       .  S
C944        C945   1.400       .  A
C944       Br949   1.927       .  S
C945        C946   1.416       .  A
C946       Br947   1.909       .  S
C951        C952   1.397       .  A
C951        C956   1.383       .  A
C951       Br958   1.921       .  S
C952        C953   1.434       .  A
C953        C954   1.418       .  A
C953       Br960   1.911       .  S
C954        C955   1.400       .  A
C954       Br959   1.929       .  S
C955        C956   1.399       .  A
C956       Br957   1.896       .  S
C961        C962   1.424       .  A
C961        C966   1.409       .  A
C961       Br968   1.911       .  S
C962        C963   1.406       .  A
C963        C964   1.402       .  A
C964        C965   1.414       .  A
C965        C966   1.409       .  A
C966       Br967   1.940       .  S
Br969      C1372   1.931   1_556  S
Br970      C1371   1.934       .  S
C971        C972   1.433       .  A
C971        C976   1.399       .  A
C971       Br978   1.926       .  S
C973       C1380   1.421       .  A
C973        C974   1.412       .  A
C973       Br980   1.936       .  S
C974       C1383   1.412       .  A
C974      Br1183   1.922       .  S
C975        C976   1.394       .  A
C976       Br977   1.936       .  S
Br979      C1178   1.922       .  S
C981        C982   1.408       .  A
C981        C986   1.412       .  A
C981       Br988   1.922       .  S
C982        C983   1.406       .  A
C983        C984   1.420       .  A
C983       Br990   1.946       .  S
C984        C985   1.446       .  A
C984      Br1397   1.936       .  S
C985        C986   1.436       .  A
C986       Br987   1.951       .  S
C991        C992   1.400       .  A
C991        C996   1.388       .  A
C991       Br998   1.890       .  S
C992        C993   1.393       .  A
C993        C994   1.420       .  A
C993      Br1408   1.940       .  S
C994        C995   1.450       .  A
C994      Br1407   1.903       .  S
C995        C996   1.419       .  A
C996       Br997   1.942       .  S
C1001      C1002   1.437       .  A
C1001      C1006   1.404       .  A
C1001     Br1008   1.950       .  S
C1002      C1003   1.436       .  A
C1003      C1004   1.414       .  A
C1003     Br1010   1.918       .  S
C1004      C1005   1.399       .  A
C1004     Br1009   1.939       .  S
C1005      C1006   1.406       .  A
C1006     Br1007   1.937       .  S
C1011      C1420   1.391       .  A
C1011      C1016   1.413       .  A
C1011     Br1018   1.948       .  S
C1012      C1013   1.404       .  A
C1013      C1014   1.404       .  A
C1013     Br1020   1.919   1_554  S
C1014      C1015   1.429       .  A
C1014     Br1019   1.940       .  S
C1016      C1423   1.445       .  A
C1016     Br1017   1.897       .  S
C1021      C1022   1.537       .  S
C1021      C1027   1.527       .  S
C1021      C1025   1.537       .  S
C1021      C1219   1.565       .  S
C1022      C1023   1.371       .  D
C1023      C1024   1.573       .  S
C1024      C1028   1.608       .  S
C1024      C1026   1.549       .  S
C1024      H1030   1.106       .  S
C1025      C1026   1.365       .  D
C1025      H1031   1.070       .  S
C1026      C1050   1.545       .  S
C1027      C1028   1.362       .  D
C1027      H1032   1.084       .  S
C1028      C1035   1.522       .  S
H1029      C1430   1.073       .  S
C1033      C1034   1.515       .  S
C1033      C1039   1.546       .  S
C1033      C1037   1.526       .  S
C1033      C1206   1.552       .  S
C1034      C1035   1.359       .  D
C1034      H1041   1.082       .  S
C1035      C1036   1.610       .  S
C1036      C1040   1.572       .  S
C1039      C1040   1.382       .  D
C1039      H1044   1.078       .  S
H1043      C1445   1.088       .  S
C1045      C1046   1.531       .  S
C1045      C1051   1.524       .  S
C1045      C1049   1.538       .  S
C1045      C1199   1.565       .  S
C1046      C1047   1.374       .  D
C1046      H1461   1.069       .  S
C1047      C1048   1.573       .  S
C1047      C1431   1.521       .  S
C1048      C1052   1.605       .  S
C1048      C1050   1.551       .  S
C1048      H1054   1.107       .  S
C1049      C1050   1.369       .  D
C1049      H1055   1.071       .  S
C1051      C1052   1.361       .  D
C1051      H1056   1.083       .  S
C1052      C1059   1.521       .  S
C1057      C1058   1.520       .  S
C1057      C1063   1.532       .  S
C1057      C1061   1.549       .  S
C1057      C1189   1.572       .  S
C1058      C1059   1.366       .  D
C1058      H1065   1.083       .  S
C1059      C1060   1.613       .  S
C1060      C1064   1.564       .  S
C1060      C1062   1.545       .  S
C1060      H1066   1.107       .  S
C1061      C1062   1.375       .  D
C1061      H1067   1.068       .  S
C1062      C1446   1.529       .  S
C1063      C1064   1.360       .  D
C1063      H1068   1.085       .  S
C1069      C1070   1.525       .  S
C1069      C1075   1.521       .  S
C1069      C1073   1.538       .  S
C1069      C1176   1.548       .  S
C1070      C1071   1.373       .  D
C1070      H1077   1.084       .  S
C1071      C1072   1.617       .  S
C1071      C1088   1.523       .  S
C1072      C1076   1.568       .  S
C1072      C1074   1.545       .  S
C1072      H1078   1.106       .  S
C1073      C1074   1.367       .  D
C1073      H1079   1.078       .  S
C1074      C1098   1.524       .  S
C1075      C1076   1.355       .  D
H1080      C1483   1.079       .  S
C1081      C1082   1.534       .  S
C1081      C1087   1.507       .  S
C1081      C1085   1.536       .  S
C1081      C1169   1.546       .  S
C1082      C1083   1.370       .  D
C1082      H1089   1.084       .  S
C1083      C1084   1.580       .  S
C1084      C1088   1.612       .  S
C1087      C1088   1.361       .  D
C1087      H1092   1.082       .  S
H1091      C1493   1.081       .  S
C1093      C1094   1.523       .  S
C1093      C1099   1.532       .  S
C1093      C1097   1.518       .  S
C1093      C1156   1.540       .  S
C1094      C1095   1.361       .  D
C1094      H1101   1.078       .  S
C1095      C1096   1.608       .  S
C1095      C1112   1.523       .  S
C1096      C1100   1.572       .  S
C1096      C1098   1.559       .  S
C1096      H1102   1.108       .  S
C1097      C1098   1.359       .  D
C1097      H1103   1.076       .  S
C1099      C1100   1.380       .  D
C1099      H1512   1.085       .  S
C1100      C1484   1.527       .  S
C1105      C1106   1.531       .  S
C1105      C1111   1.526       .  S
C1105      C1109   1.535       .  S
C1105      C1146   1.545       .  S
C1106      C1107   1.376       .  D
C1106      H1113   1.082       .  S
C1107      C1108   1.568       .  S
C1108      C1112   1.607       .  S
C1108      C1110   1.551       .  S
C1108      H1114   1.106       .  S
C1109      C1110   1.365       .  D
C1109      H1115   1.081       .  S
C1110      C1494   1.522   1_556  S
C1111      C1112   1.363       .  D
C1111      H1116   1.082       .  S
O1117     Cu1125   1.986       .  S
O1117      C1127   1.270       .  A
O1118     Cu1125   1.990       .  S
O1118      C1128   1.275       .  A
O1119     Cu1125   2.050       .  S
O1119      C1129   1.284       .  A
O1120     Cu1125   2.026       .  S
O1120      C1130   1.281       .  A
O1121     Cu1126   1.973       .  S
O1121      C1130   1.270       .  A
O1122     Cu1126   1.988       .  S
O1122      C1129   1.272       .  A
O1123     Cu1126   2.044       .  S
O1123      C1128   1.283       .  A
O1124     Cu1126   2.023       .  S
O1124      C1127   1.283       .  A
Cu1125    Cu1126   2.360       .  S
C1127      C1166   1.497       .  S
C1128      C1186   1.501       .  S
C1129      C1149   1.485       .  S
C1130      C1209   1.487       .  S
O1131     Cu1139   2.027       .  S
O1131      C1141   1.281       .  A
O1132      C1550   1.279       .  A
O1133      C1551   1.273       .  A
O1134     Cu1139   2.001       .  S
O1134      C1144   1.276   1_545  A
O1135     Cu1140   2.035       .  S
O1136      C1143   1.280       .  A
O1137      C1142   1.273       .  A
O1138     Cu1140   2.000       .  S
Cu1139    Cu1548   2.370       .  S
C1141      O1546   1.274       .  A
C1141      C1159   1.475       .  S
C1142      C1216   1.475   1_545  S
C1143      C1179   1.473       .  S
C1144      O1543   1.282   1_565  A
C1144      C1196   1.486       .  S
C1145      C1146   1.411       .  A
C1145      C1150   1.410       .  A
C1145     Br1152   1.937       .  S
C1146      C1147   1.425       .  A
C1147      C1148   1.409       .  A
C1147     Br1154   1.929       .  S
C1148      C1149   1.400       .  A
C1148     Br1153   1.927       .  S
C1149      C1150   1.416       .  A
C1150     Br1151   1.909       .  S
C1155      C1156   1.397       .  A
C1155      C1160   1.383       .  A
C1155     Br1162   1.921       .  S
C1156      C1157   1.434       .  A
C1157      C1158   1.418       .  A
C1157     Br1164   1.911       .  S
C1158      C1159   1.400       .  A
C1158     Br1163   1.929       .  S
C1159      C1160   1.399       .  A
C1160     Br1161   1.896       .  S
C1165      C1166   1.424       .  A
C1165      C1170   1.409       .  A
C1165     Br1172   1.911       .  S
C1166      C1167   1.406       .  A
C1167      C1168   1.402       .  A
C1168      C1169   1.414       .  A
C1169      C1170   1.409       .  A
C1170     Br1171   1.940       .  S
Br1173     C1576   1.931       .  S
Br1174     C1575   1.934       .  S
C1175      C1176   1.433       .  A
C1175      C1180   1.399       .  A
C1175     Br1182   1.926       .  S
C1177      C1584   1.421       .  A
C1177      C1178   1.412       .  A
C1177     Br1184   1.936       .  S
C1178      C1587   1.412       .  A
C1179      C1180   1.394       .  A
C1180     Br1181   1.936       .  S
C1185      C1186   1.408       .  A
C1185      C1190   1.412       .  A
C1185     Br1192   1.922       .  S
C1186      C1187   1.406       .  A
C1187      C1188   1.420       .  A
C1187     Br1194   1.946       .  S
C1188      C1189   1.446       .  A
C1188     Br1601   1.936       .  S
C1189      C1190   1.436       .  A
C1190     Br1191   1.951       .  S
C1195      C1196   1.400       .  A
C1195      C1200   1.388       .  A
C1195     Br1202   1.890       .  S
C1196      C1197   1.393       .  A
C1197      C1198   1.420       .  A
C1197     Br1612   1.940       .  S
C1198      C1199   1.450       .  A
C1198     Br1611   1.903       .  S
C1199      C1200   1.419       .  A
C1200     Br1201   1.942       .  S
C1205      C1206   1.437       .  A
C1205      C1210   1.404       .  A
C1205     Br1212   1.950       .  S
C1206      C1207   1.436       .  A
C1207      C1208   1.414       .  A
C1207     Br1214   1.918       .  S
C1208      C1209   1.399       .  A
C1208     Br1213   1.939       .  S
C1209      C1210   1.406       .  A
C1210     Br1211   1.937       .  S
C1215      C1624   1.391       .  A
C1215      C1220   1.413       .  A
C1215     Br1222   1.948       .  S
C1216      C1217   1.404       .  A
C1217      C1218   1.404       .  A
C1217     Br1224   1.919       .  S
C1218      C1219   1.429       .  A
C1218     Br1223   1.940       .  S
C1220      C1627   1.445       .  A
C1220     Br1221   1.897       .  S
C1225      C1226   1.536       .  S
C1225      C1231   1.528       .  S
C1225      C1229   1.538       .  S
C1225      C1423   1.569       .  S
C1226      C1227   1.370       .  D
C1227      C1228   1.575       .  S
C1228      C1232   1.612       .  S
C1228      C1230   1.555       .  S
C1228      H1234   1.106       .  S
C1229      C1230   1.367       .  D
C1229      H1235   1.061       .  S
C1230      C1254   1.555       .  S
C1231      C1232   1.363       .  D
C1231      H1236   1.084       .  S
C1232      C1239   1.527       .  S
C1237      C1238   1.517       .  S
C1237      C1243   1.551       .  S
C1237      C1241   1.523       .  S
C1237      C1410   1.555       .  S
C1238      C1239   1.359       .  D
C1238      H1245   1.082       .  S
C1239      C1240   1.612       .  S
C1240      C1244   1.570       .  S
C1240      C1446   1.563   1_554  S
C1240      H1450   1.108   1_554  S
C1241      C1446   1.355   1_554  D
C1242      C1444   1.563       .  S
C1242      C1445   1.355       .  D
C1243      C1244   1.386       .  D
C1243      H1248   1.081       .  S
C1244      C1472   1.535   1_554  S
H1246      C1444   1.108       .  S
C1249      C1250   1.532   1_655  S
C1249      C1255   1.523       .  S
C1249      C1253   1.541       .  S
C1249      C1403   1.566       .  S
C1250      C1251   1.374       .  D
C1251      C1252   1.574   1_455  S
C1252      C1256   1.609       .  S
C1252      C1254   1.554       .  S
C1252      H1258   1.107       .  S
C1253      C1254   1.372       .  D
C1253      H1259   1.061       .  S
C1255      C1256   1.357       .  D
C1255      H1260   1.083       .  S
C1256      C1263   1.521       .  S
C1261      C1262   1.515       .  S
C1261      C1267   1.531       .  S
C1261      C1265   1.540   1_655  S
C1261      C1393   1.555       .  S
C1262      C1263   1.360       .  D
C1262      H1269   1.083       .  S
C1263      C1264   1.618       .  S
C1264      C1268   1.570       .  S
C1264      C1266   1.550   1_655  S
C1264      H1270   1.108       .  S
C1265      C1266   1.373       .  D
C1265      H1271   1.071       .  S
C1267      C1268   1.357       .  D
C1267      H1272   1.085       .  S
C1268      C1448   1.535       .  S
C1273      C1274   1.527       .  S
C1273      C1279   1.526       .  S
C1273      C1277   1.540       .  S
C1273      C1380   1.549       .  S
C1274      C1275   1.370       .  D
C1274      H1281   1.084       .  S
C1275      C1276   1.622       .  S
C1275      C1292   1.529       .  S
C1276      C1280   1.568       .  S
C1276      C1278   1.549       .  S
C1276      H1282   1.106       .  S
C1277      C1278   1.366       .  D
C1277      H1283   1.078       .  S
C1278      C1302   1.530       .  S
C1279      C1280   1.357       .  D
C1285      C1286   1.529       .  S
C1285      C1291   1.516       .  S
C1285      C1289   1.530       .  S
C1285      C1373   1.537       .  S
C1286      C1287   1.367       .  D
C1286      H1293   1.088       .  S
C1287      C1288   1.579       .  S
C1287      C1515   1.535   1_554  S
C1288      C1292   1.614       .  S
C1288      C1494   1.559       .  S
C1288      H1498   1.108       .  S
C1289      C1494   1.368       .  D
C1290      C1492   1.559       .  S
C1290      C1493   1.368       .  D
C1291      C1292   1.358       .  D
C1291      H1296   1.080       .  S
H1294      C1492   1.108       .  S
C1297      C1298   1.526       .  S
C1297      C1303   1.533       .  S
C1297      C1301   1.523       .  S
C1297      C1360   1.547       .  S
C1298      C1299   1.361       .  D
C1298      H1305   1.077       .  S
C1299      C1300   1.605       .  S
C1299      C1316   1.526       .  S
C1300      C1304   1.570       .  S
C1300      C1302   1.559       .  S
C1300      H1306   1.107       .  S
C1301      C1302   1.363       .  D
C1301      H1307   1.077       .  S
C1303      C1304   1.381       .  D
C1309      C1310   1.534       .  S
C1309      C1315   1.526       .  S
C1309      C1313   1.532       .  S
C1309      C1350   1.550       .  S
C1310      C1311   1.372       .  D
C1310      H1317   1.083       .  S
C1311      C1312   1.568       .  S
C1311      C1491   1.535       .  S
C1312      C1316   1.614       .  S
C1312      C1314   1.555       .  S
C1312      H1318   1.106       .  S
C1313      C1314   1.361       .  D
C1313      H1319   1.081       .  S
C1315      C1316   1.371       .  D
C1315      H1320   1.083       .  S
O1321     Cu1329   1.981       .  S
O1321      C1331   1.273       .  A
O1322     Cu1329   1.978       .  S
O1322      C1332   1.273       .  A
O1323     Cu1329   2.023       .  S
O1323      C1333   1.283       .  A
O1324     Cu1329   2.020       .  S
O1324      C1334   1.280       .  A
O1325     Cu1330   1.980       .  S
O1325      C1334   1.272       .  A
O1326     Cu1330   1.977       .  S
O1326      C1333   1.271       .  A
O1327     Cu1330   2.021       .  S
O1327      C1332   1.280       .  A
O1328     Cu1330   2.013       .  S
O1328      C1331   1.279       .  A
Cu1329    Cu1330   2.367       .  S
C1331      C1370   1.468       .  S
C1332      C1390   1.485       .  S
C1333      C1353   1.480       .  S
C1334      C1413   1.491       .  S
O1335     Cu1343   2.025       .  S
O1335      C1345   1.281       .  A
O1336     Cu1547   1.997   1_554  S
O1337     Cu1547   1.985   1_554  S
O1338     Cu1343   1.999       .  S
O1338      C1348   1.276   1_545  A
O1339     Cu1344   2.029       .  S
O1340     Cu1548   2.001   1_554  S
O1340      C1347   1.279       .  A
O1341     Cu1548   1.986   1_554  S
O1341      C1346   1.273       .  A
O1342     Cu1344   2.000       .  S
Cu1343     O1540   1.997       .  S
Cu1343     O1541   1.985       .  S
Cu1344     O1544   2.001       .  S
Cu1344     O1545   1.986       .  S
C1345      C1363   1.476       .  S
C1346      C1420   1.481   1_545  S
C1347      C1383   1.475       .  S
C1348      C1400   1.489       .  S
C1349      C1350   1.413       .  A
C1349      C1354   1.415       .  A
C1349     Br1356   1.934       .  S
C1350      C1351   1.426       .  A
C1351      C1352   1.394       .  A
C1351     Br1358   1.910       .  S
C1352      C1353   1.392       .  A
C1352     Br1357   1.930       .  S
C1353      C1354   1.420       .  A
C1354     Br1355   1.910       .  S
C1359      C1360   1.399       .  A
C1359      C1364   1.385       .  A
C1359     Br1366   1.920       .  S
C1360      C1361   1.436       .  A
C1361      C1362   1.419       .  A
C1361     Br1368   1.908       .  S
C1362      C1363   1.398       .  A
C1362     Br1367   1.930       .  S
C1363      C1364   1.399       .  A
C1364     Br1365   1.896   1_655  S
C1369      C1370   1.409       .  A
C1369      C1374   1.405       .  A
C1369     Br1376   1.923       .  S
C1370      C1371   1.395       .  A
C1371      C1372   1.404       .  A
C1372      C1373   1.436       .  A
C1373      C1374   1.423       .  A
C1374     Br1375   1.950       .  S
C1379      C1380   1.433       .  A
C1379      C1384   1.398       .  A
C1379     Br1386   1.924       .  S
C1381      C1382   1.412       .  A
C1381     Br1388   1.936       .  S
C1382     Br1591   1.924       .  S
C1383      C1384   1.395       .  A
C1384     Br1385   1.937       .  S
Br1387     C1586   1.924       .  S
C1389      C1390   1.403       .  A
C1389      C1394   1.403       .  A
C1389     Br1396   1.921       .  S
C1390      C1391   1.404       .  A
C1391      C1392   1.415       .  A
C1391     Br1398   1.944       .  S
C1392      C1393   1.444       .  A
C1393      C1394   1.434       .  A
C1394     Br1395   1.954       .  S
C1399      C1400   1.401       .  A
C1399      C1404   1.390       .  A
C1399     Br1406   1.893       .  S
C1400      C1401   1.394   1_655  A
C1401      C1402   1.421       .  A
C1402      C1403   1.449   1_455  A
C1403      C1404   1.420       .  A
C1404     Br1405   1.943       .  S
C1409      C1410   1.436       .  A
C1409      C1414   1.408       .  A
C1409     Br1416   1.949       .  S
C1410      C1411   1.432       .  A
C1411      C1412   1.414       .  A
C1411     Br1418   1.917   1_554  S
C1412      C1413   1.402       .  A
C1412     Br1417   1.939       .  S
C1413      C1414   1.410       .  A
C1414     Br1415   1.937       .  S
C1419      C1424   1.411       .  A
C1419     Br1426   1.948   1_455  S
C1420      C1421   1.407       .  A
C1421      C1422   1.406       .  A
C1421     Br1428   1.921   1_554  S
C1422      C1423   1.428       .  A
C1422     Br1427   1.939       .  S
C1424     Br1425   1.898   1_455  S
C1429      C1430   1.536       .  S
C1429      C1435   1.528       .  S
C1429      C1433   1.538       .  S
C1429      C1627   1.569       .  S
C1430      C1431   1.370       .  D
C1431      C1432   1.575       .  S
C1432      C1436   1.612       .  S
C1432      C1434   1.555       .  S
C1432      H1438   1.106       .  S
C1433      C1434   1.367       .  D
C1433      H1439   1.061       .  S
C1434      C1458   1.555       .  S
C1435      C1436   1.363       .  D
C1435      H1440   1.084       .  S
C1436      C1443   1.527       .  S
C1441      C1442   1.517       .  S
C1441      C1447   1.551       .  S
C1441      C1445   1.523       .  S
C1441      C1614   1.555       .  S
C1442      C1443   1.359       .  D
C1442      H1449   1.082       .  S
C1443      C1444   1.612       .  S
C1444      C1448   1.570       .  S
C1447      C1448   1.386       .  D
C1447      H1452   1.081       .  S
C1453      C1454   1.532   1_655  S
C1453      C1459   1.523       .  S
C1453      C1457   1.541       .  S
C1453      C1607   1.566       .  S
C1454      C1455   1.374       .  D
C1455      C1456   1.574   1_455  S
C1456      C1460   1.609       .  S
C1456      C1458   1.554       .  S
C1456      H1462   1.107       .  S
C1457      C1458   1.372       .  D
C1457      H1463   1.061       .  S
C1459      C1460   1.357       .  D
C1459      H1464   1.083       .  S
C1460      C1467   1.521       .  S
C1465      C1466   1.515       .  S
C1465      C1471   1.531       .  S
C1465      C1469   1.540   1_655  S
C1465      C1597   1.555       .  S
C1466      C1467   1.360       .  D
C1466      H1473   1.083       .  S
C1467      C1468   1.618       .  S
C1468      C1472   1.570       .  S
C1468      C1470   1.550   1_655  S
C1468      H1474   1.108       .  S
C1469      C1470   1.373       .  D
C1469      H1475   1.071       .  S
C1471      C1472   1.357       .  D
C1471      H1476   1.086       .  S
C1477      C1478   1.527       .  S
C1477      C1483   1.526       .  S
C1477      C1481   1.540       .  S
C1477      C1584   1.549       .  S
C1478      C1479   1.370       .  D
C1478      H1485   1.084       .  S
C1479      C1480   1.622       .  S
C1479      C1496   1.529       .  S
C1480      C1484   1.568       .  S
C1480      C1482   1.549       .  S
C1480      H1486   1.106       .  S
C1481      C1482   1.366       .  D
C1481      H1487   1.078       .  S
C1482      C1506   1.530       .  S
C1483      C1484   1.357       .  D
C1489      C1490   1.529       .  S
C1489      C1495   1.516       .  S
C1489      C1493   1.530       .  S
C1489      C1577   1.537       .  S
C1490      C1491   1.367       .  D
C1490      H1497   1.088       .  S
C1491      C1492   1.579       .  S
C1492      C1496   1.614       .  S
C1495      C1496   1.358       .  D
C1495      H1500   1.080       .  S
C1501      C1502   1.526       .  S
C1501      C1507   1.533       .  S
C1501      C1505   1.523       .  S
C1501      C1564   1.547       .  S
C1502      C1503   1.361       .  D
C1502      H1509   1.077       .  S
C1503      C1504   1.605       .  S
C1503      C1520   1.526       .  S
C1504      C1508   1.570       .  S
C1504      C1506   1.559       .  S
C1504      H1510   1.107       .  S
C1505      C1506   1.363       .  D
C1505      H1511   1.077       .  S
C1507      C1508   1.381       .  D
C1513      C1514   1.534       .  S
C1513      C1519   1.526       .  S
C1513      C1517   1.532       .  S
C1513      C1554   1.550       .  S
C1514      C1515   1.372       .  D
C1514      H1521   1.083       .  S
C1515      C1516   1.568       .  S
C1516      C1520   1.614       .  S
C1516      C1518   1.555       .  S
C1516      H1522   1.106       .  S
C1517      C1518   1.361       .  D
C1517      H1523   1.081       .  S
C1519      C1520   1.371       .  D
C1519      H1524   1.083       .  S
O1525     Cu1533   1.981       .  S
O1525      C1535   1.273       .  A
O1526     Cu1533   1.978       .  S
O1526      C1536   1.273       .  A
O1527     Cu1533   2.023       .  S
O1527      C1537   1.283       .  A
O1528     Cu1533   2.020       .  S
O1528      C1538   1.280       .  A
O1529     Cu1534   1.980       .  S
O1529      C1538   1.272       .  A
O1530     Cu1534   1.977       .  S
O1530      C1537   1.271       .  A
O1531     Cu1534   2.021       .  S
O1531      C1536   1.280       .  A
O1532     Cu1534   2.013       .  S
O1532      C1535   1.279       .  A
Cu1533    Cu1534   2.367       .  S
C1535      C1574   1.468       .  S
C1536      C1594   1.485       .  S
C1537      C1557   1.480       .  S
C1538      C1617   1.491       .  S
O1539     Cu1547   2.025       .  S
O1539      C1549   1.281       .  A
O1542     Cu1547   1.999       .  S
O1542      C1552   1.276   1_545  A
O1543     Cu1548   2.029       .  S
O1544      C1551   1.279       .  A
O1545      C1550   1.273       .  A
O1546     Cu1548   2.000       .  S
C1549      C1567   1.476       .  S
C1550      C1624   1.481   1_545  S
C1551      C1587   1.475       .  S
C1552      C1604   1.489       .  S
C1553      C1554   1.413       .  A
C1553      C1558   1.415       .  A
C1553     Br1560   1.934       .  S
C1554      C1555   1.426       .  A
C1555      C1556   1.394       .  A
C1555     Br1562   1.910       .  S
C1556      C1557   1.392       .  A
C1556     Br1561   1.930       .  S
C1557      C1558   1.420       .  A
C1558     Br1559   1.910       .  S
C1563      C1564   1.399       .  A
C1563      C1568   1.385       .  A
C1563     Br1570   1.920       .  S
C1564      C1565   1.436       .  A
C1565      C1566   1.419       .  A
C1565     Br1572   1.908       .  S
C1566      C1567   1.398       .  A
C1566     Br1571   1.930       .  S
C1567      C1568   1.399       .  A
C1568     Br1569   1.896   1_655  S
C1573      C1574   1.409       .  A
C1573      C1578   1.405       .  A
C1573     Br1580   1.923       .  S
C1574      C1575   1.395       .  A
C1575      C1576   1.404       .  A
C1576      C1577   1.436       .  A
C1577      C1578   1.423       .  A
C1578     Br1579   1.950       .  S
C1583      C1584   1.433       .  A
C1583      C1588   1.398       .  A
C1583     Br1590   1.924       .  S
C1585      C1586   1.412       .  A
C1585     Br1592   1.936       .  S
C1587      C1588   1.395       .  A
C1588     Br1589   1.937       .  S
C1593      C1594   1.403       .  A
C1593      C1598   1.403       .  A
C1593     Br1600   1.921       .  S
C1594      C1595   1.404       .  A
C1595      C1596   1.415       .  A
C1595     Br1602   1.944       .  S
C1596      C1597   1.444       .  A
C1597      C1598   1.434       .  A
C1598     Br1599   1.954       .  S
C1603      C1604   1.401       .  A
C1603      C1608   1.390       .  A
C1603     Br1610   1.893       .  S
C1604      C1605   1.394   1_655  A
C1605      C1606   1.421       .  A
C1606      C1607   1.449   1_455  A
C1607      C1608   1.420       .  A
C1608     Br1609   1.943       .  S
C1613      C1614   1.436       .  A
C1613      C1618   1.408       .  A
C1613     Br1620   1.949       .  S
C1614      C1615   1.432       .  A
C1615      C1616   1.414       .  A
C1615     Br1622   1.917       .  S
C1616      C1617   1.402       .  A
C1616     Br1621   1.939       .  S
C1617      C1618   1.410       .  A
C1618     Br1619   1.937       .  S
C1623      C1628   1.411       .  A
C1623     Br1630   1.948   1_455  S
C1624      C1625   1.407       .  A
C1625      C1626   1.406       .  A
C1625     Br1632   1.921       .  S
C1626      C1627   1.428       .  A
C1626     Br1631   1.939       .  S
C1628     Br1629   1.898   1_455  S
