geometry optimzed in LAMMPS
_audit_creation_date              2020-11-30 
_audit_creation_method            'lammps2cif' 
_symmetry_space_group_name_H-M    'P1' 
_symmetry_Int_Tables_number       1 
_symmetry_cell_setting            triclinic 
loop_ 
_symmetry_equiv_pos_as_xyz 
  x,y,z 
_cell_length_a                    20.68016236 
_cell_length_b                    29.723696790274776 
_cell_length_c                    23.18162490438218 
_cell_angle_alpha                 90.08716763583328 
_cell_angle_beta                  102.3204163772895 
_cell_angle_gamma                 89.72266722468467 
loop_ 
_atom_site_label 
_atom_site_type_symbol 
_atom_site_fract_x 
_atom_site_fract_y 
_atom_site_fract_z 
_atom_site_charge 
C1          C  0.10734519  0.82856220  0.19368175    -0.02200
C2          C  0.13580488  0.65962254  0.06593310    -0.02200
C3          C  0.38520410  0.82859322  0.31643908    -0.02200
C4          C  0.35794646  0.65958331  0.44317676    -0.02200
C5          C  0.10800301  0.15956109  0.19308618    -0.02200
C6          C  0.13512652  0.32862621  0.06652109    -0.02200
C7          C  0.38584428  0.15968520  0.31580176    -0.02200
C8          C  0.35728550  0.32849341  0.44380606    -0.02200
O9          O  0.16492400  0.44867373  0.21376611    -0.74100
O10         O  0.23306206  0.54017932  0.32662935    -0.74200
O11         O  0.16527432  0.53997175  0.21317760    -0.74200
O12         O  0.23270543  0.44889043  0.32722197    -0.74300
O13         O  0.32806463  0.44815601  0.29659824    -0.74200
O14         O  0.26062367  0.53925012  0.18254064    -0.74200
O15         O  0.32842617  0.53945224  0.29601098    -0.74200
O16         O  0.26028133  0.44793828  0.18313745    -0.74200
Ni17       Ni  0.19556552  0.49445552  0.27130177     1.25400
Ni18       Ni  0.29778101  0.49367191  0.23846587     1.25400
C19         C  0.20165488  0.43320030  0.18031028     0.88000
C20         C  0.29168453  0.55492083  0.32946272     0.88000
C21         C  0.20213353  0.55468630  0.17956617     0.88000
C22         C  0.29119082  0.43345433  0.33020654     0.88200
O23         O  0.01045058  0.03929149  0.43238123    -0.74100
O24         O  0.07789407  0.94821449  0.04643219    -0.74200
O25         O  0.01010526  0.94800088  0.43297915    -0.74200
O26         O  0.07823328  0.03951346  0.04583810    -0.74300
O27         O  0.48287536  0.04024372  0.07646591    -0.74200
O28         O  0.41474193  0.94872473  0.46359896    -0.74200
O29         O  0.48254411  0.94893304  0.07706806    -0.74200
O30         O  0.41509228  0.04002065  0.46300636    -0.74200
Ni31       Ni  0.04759731  0.99372857  0.48830443     1.25400
Ni32       Ni  0.44538195  0.99450763  0.02114059     1.25400
C33         C  0.45196301  0.05472438  0.42939685     0.88000
C34         C  0.04103542  0.93349918  0.08004404     0.88000
C35         C  0.45148409  0.93325662  0.43014766     0.88000
C36         C  0.04149955  0.05498519  0.07929283     0.88200
C37         C  0.33477428  0.36734740  0.40435978    -0.13000
C38         C  0.31550000  0.39824377  0.37141440    -0.14500
C39         C  0.40836057  0.12083038  0.35524612    -0.13000
C40         C  0.42764600  0.08993403  0.38818884    -0.14500
C41         C  0.39571007  0.20574518  0.41240374    -0.13100
C42         C  0.37916864  0.20307826  0.35024231     0.09100
C43         C  0.35504130  0.24214500  0.31834781    -0.13100
C44         C  0.34741645  0.28243202  0.34720566    -0.13100
C45         C  0.36395931  0.28509937  0.40936701     0.09100
C46         C  0.38808554  0.24603245  0.44126178    -0.13100
H47         H  0.41474091  0.17697545  0.43928696     0.13100
H48         H  0.34162205  0.24128833  0.27056527     0.13100
H49         H  0.32838490  0.31120116  0.32032215     0.13100
H50         H  0.40150466  0.24688932  0.48904435     0.13100
C51         C  0.17693464  0.39801846  0.13930913    -0.13000
C52         C  0.15743172  0.36728770  0.10624741    -0.14500
C53         C  0.01447704  0.34626140  0.06622045    -0.13100
C54         C  0.06428471  0.34164367  0.03319504     0.09100
C55         C  0.04440063  0.34980771  0.47225746    -0.13100
C56         C  0.47766924  0.34628895  0.44436064    -0.13100
C57         C  0.42794435  0.34135977  0.47734317     0.09100
C58         C  0.44764539  0.34944217  0.03834134    -0.13100
H59         H  0.02745476  0.34687170  0.11402708     0.13100
H60         H  0.07868569  0.35928494  0.44554322     0.13100
H61         H  0.46470057  0.34699606  0.39655874     0.13100
H62         H  0.41317098  0.35864417  0.06512795     0.13100
C63         C  0.18219566  0.31165418  0.47178089    -0.13100
C64         C  0.19111034  0.31951565  0.03281650     0.09100
C65         C  0.25654918  0.31415257  0.06596731    -0.13100
C66         C  0.31026286  0.31123567  0.03832593    -0.13100
C67         C  0.30131506  0.31943175  0.47738280     0.09100
C68         C  0.23590352  0.31447633  0.44417526    -0.13100
H69         H  0.13528306  0.30183381  0.44498099     0.13100
H70         H  0.26607092  0.31207727  0.11369271     0.13100
H71         H  0.35724278  0.30114370  0.06500335     0.13100
H72         H  0.22640085  0.31264667  0.39643036     0.13100
C73         C  0.08570316  0.12090009  0.15335769    -0.13000
C74         C  0.06621199  0.09016875  0.12029345    -0.14500
C75         C  0.22865216  0.14192644  0.19338707    -0.13100
C76         C  0.17884467  0.14654387  0.22641279     0.09100
C77         C  0.19872777  0.13837546  0.28734959    -0.13100
C78         C  0.26545992  0.14188950  0.31524690    -0.13100
C79         C  0.31518515  0.14681893  0.28226491     0.09100
C80         C  0.29548313  0.13874088  0.22126602    -0.13100
H81         H  0.21567485  0.14131895  0.14558080     0.13100
H82         H  0.16444187  0.12889843  0.31406273     0.13100
H83         H  0.27842888  0.14117958  0.36304926     0.13100
H84         H  0.32995682  0.12953850  0.19447841     0.13100
C85         C  0.06093214  0.17652960  0.28782539    -0.13100
C86         C  0.05201775  0.16866852  0.22678990     0.09100
C87         C  0.48657871  0.17403052  0.19363904    -0.13100
C88         C  0.43286489  0.17694645  0.22128063    -0.13100
C89         C  0.44181311  0.16875005  0.28222383     0.09100
C90         C  0.00722451  0.17370664  0.31543103    -0.13100
H91         H  0.10784450  0.18635009  0.31462519     0.13100
H92         H  0.47705701  0.17610620  0.14591357     0.13100
H93         H  0.38588487  0.18703834  0.19460327     0.13100
H94         H  0.01672741  0.17553602  0.36317599     0.13100
C95         C  0.09727670  0.20599689  0.09689578    -0.13100
C96         C  0.11425044  0.20303298  0.15900680     0.09100
C97         C  0.13847964  0.24184947  0.19122742    -0.13100
C98         C  0.14584908  0.28219209  0.16271316    -0.13100
C99         C  0.12887692  0.28515543  0.10060198     0.09100
C100        C  0.10464626  0.24633922  0.06838164    -0.13100
H101        H  0.07810787  0.17742628  0.06980025     0.13100
H102        H  0.15221167  0.24073703  0.23898958     0.13100
H103        H  0.16501703  0.31076288  0.18980812     0.13100
H104        H  0.09091401  0.24745154  0.02061949     0.13100
C105        C  0.31635242  0.59012177  0.37044551    -0.13000
C106        C  0.33572795  0.62089217  0.40347712    -0.14500
C107        C  0.42681566  0.89805389  0.38916719    -0.13000
C108        C  0.40743030  0.86728351  0.35613826    -0.14500
C109        C  0.35471252  0.74629735  0.31838102    -0.13100
C110        C  0.37894763  0.78513151  0.35056051     0.09100
C111        C  0.39587753  0.78219840  0.41267871    -0.13100
C112        C  0.38843720  0.74187929  0.44123508    -0.13100
C113        C  0.36420301  0.70304492  0.40905552     0.09100
C114        C  0.34727249  0.70597823  0.34693738    -0.13100
H115        H  0.34101231  0.74737921  0.27061699     0.13100
H116        H  0.41505789  0.81077911  0.43974907     0.13100
H117        H  0.40213702  0.74079764  0.48899913     0.13100
H118        H  0.32809137  0.67739757  0.31986682     0.13100
C119        C  0.17777495  0.58990599  0.13836440    -0.13000
C120        C  0.15838689  0.62079165  0.10542063    -0.14500
C121        C  0.04540412  0.63860237  0.47146782    -0.13100
C122        C  0.06512151  0.64675705  0.03244462     0.09100
C123        C  0.01538356  0.64193750  0.06543360    -0.12700
C124        C  0.44863712  0.63848178  0.03753664    -0.13100
C125        C  0.42877382  0.64657767  0.47657354     0.09100
C126        C  0.47858538  0.64184932  0.44357221    -0.13100
H127        H  0.07986613  0.62929763  0.44471366     0.13100
H128        H  0.02835209  0.64128085  0.11323728     0.13100
H129        H  0.41433590  0.62909612  0.06427678     0.13100
H130        H  0.46562049  0.64118125  0.39576699     0.13100
C131        C  0.25713312  0.67375837  0.06547716    -0.13100
C132        C  0.19173194  0.66867793  0.03229882     0.09100
C133        C  0.18274384  0.67678219  0.47132794    -0.13100
C134        C  0.23645805  0.67390017  0.44368008    -0.13100
C135        C  0.30191773  0.66867276  0.47683704     0.09100
C136        C  0.31081448  0.67663839  0.03784608    -0.13100
H137        H  0.26664460  0.67566021  0.11321772     0.13100
H138        H  0.13573894  0.68679526  0.44462808     0.13100
H139        H  0.22692166  0.67590186  0.39594859     0.13100
H140        H  0.35770041  0.68656556  0.06459945     0.13100
C141        C  0.06539310  0.89828043  0.12124766    -0.13000
C142        C  0.08477113  0.86739432  0.15419377    -0.14500
C143        C  0.19774496  0.84957067  0.28815445    -0.13100
C144        C  0.17802792  0.84142498  0.22717514     0.09100
C145        C  0.22776630  0.84625055  0.19418787    -0.13100
C146        C  0.29451202  0.84970528  0.22208603    -0.13100
C147        C  0.31437572  0.84160085  0.28304687     0.09100
C148        C  0.26456421  0.84632280  0.31604940    -0.13100
H149        H  0.16328261  0.85886869  0.31491127     0.13100
H150        H  0.21479859  0.84691355  0.14638456     0.13100
H151        H  0.32881321  0.85909790  0.19534862     0.13100
H152        H  0.27752969  0.84698459  0.36385510     0.13100
C153        C  0.06040118  0.81138979  0.28827947    -0.13100
C154        C  0.05141418  0.81950785  0.22731180     0.09100
C155        C  0.48601214  0.81443562  0.19413163    -0.13100
C156        C  0.43233035  0.81155034  0.22176186    -0.13100
C157        C  0.44122872  0.81950270  0.28277412     0.09100
C158        C  0.00668783  0.81426708  0.31592863    -0.13100
H159        H  0.10740510  0.80137029  0.31497544     0.13100
H160        H  0.47650044  0.81254280  0.14639019     0.13100
H161        H  0.38544353  0.80162917  0.19500506     0.13100
H162        H  0.01622460  0.81225647  0.36365964     0.13100
C163        C  0.09760181  0.78244448  0.09714299    -0.13100
C164        C  0.11400142  0.78513666  0.15930245     0.09100
C165        C  0.13796353  0.74606329  0.19126367    -0.13100
C166        C  0.14554675  0.70574010  0.16247184    -0.13100
C167        C  0.12914817  0.70304813  0.10031235     0.09100
C168        C  0.10518514  0.74212127  0.06835113    -0.13100
H169        H  0.07872112  0.81122217  0.07021267     0.13100
H170        H  0.15127530  0.74694124  0.23904869     0.13100
H171        H  0.16442642  0.67696221  0.18940212     0.13100
H172        H  0.09187325  0.74124309  0.02056610     0.13100
C173        C  0.10734521  0.82856224  0.69368176    -0.02200
C174        C  0.13580482  0.65962253  0.56593311    -0.02200
C175        C  0.38520405  0.82859323  0.81643907    -0.02200
C176        C  0.35794645  0.65958330  0.94317673    -0.02200
C177        C  0.10800303  0.15956101  0.69308619    -0.02200
C178        C  0.13512652  0.32862616  0.56652104    -0.02200
C179        C  0.38584431  0.15968524  0.81580177    -0.02200
C180        C  0.35728549  0.32849341  0.94380607    -0.02200
O181        O  0.16492402  0.44867377  0.71376610    -0.74100
O182        O  0.23306206  0.54017922  0.82662938    -0.74200
O183        O  0.16527436  0.53997183  0.71317762    -0.74200
O184        O  0.23270546  0.44889046  0.82722197    -0.74300
O185        O  0.32806466  0.44815608  0.79659826    -0.74200
O186        O  0.26062369  0.53925020  0.68254063    -0.74200
O187        O  0.32842615  0.53945233  0.79601097    -0.74200
O188        O  0.26028137  0.44793832  0.68313747    -0.74200
Ni189      Ni  0.19556554  0.49445554  0.77130176     1.25400
Ni190      Ni  0.29778103  0.49367198  0.73846586     1.25400
C191        C  0.20165492  0.43320030  0.68031031     0.88000
C192        C  0.29168448  0.55492081  0.82946275     0.88000
C193        C  0.20213355  0.55468638  0.67956618     0.88000
C194        C  0.29119083  0.43345436  0.83020652     0.88200
O195        O  0.01045055  0.03929134  0.93238116    -0.74100
O196        O  0.07789407  0.94821457  0.54643216    -0.74200
O197        O  0.01010520  0.94800074  0.93297921    -0.74200
O198        O  0.07823328  0.03951355  0.54583809    -0.74300
O199        O  0.48287533  0.04024377  0.57646586    -0.74200
O200        O  0.41474192  0.94872477  0.96359890    -0.74200
O201        O  0.48254406  0.94893308  0.57706807    -0.74200
O202        O  0.41509232  0.04002069  0.96300641    -0.74200
Ni203      Ni  0.04759728  0.99372843  0.98830443     1.25400
Ni204      Ni  0.44538193  0.99450766  0.52114058     1.25400
C205        C  0.45196306  0.05472437  0.92939687     0.88000
C206        C  0.04103542  0.93349921  0.58004398     0.88000
C207        C  0.45148408  0.93325660  0.93014763     0.88000
C208        C  0.04149956  0.05498522  0.57929283     0.88200
C209        C  0.33477427  0.36734741  0.90435978    -0.13000
C210        C  0.31549997  0.39824373  0.87141431    -0.14500
C211        C  0.40836060  0.12083043  0.85524615    -0.13000
C212        C  0.42764610  0.08993408  0.88818887    -0.14500
C213        C  0.39571004  0.20574523  0.91240378    -0.13100
C214        C  0.37916868  0.20307829  0.85024233     0.09100
C215        C  0.35504127  0.24214499  0.81834781    -0.13100
C216        C  0.34741648  0.28243205  0.84720561    -0.13100
C217        C  0.36395926  0.28509941  0.90936697     0.09100
C218        C  0.38808530  0.24603248  0.94126177    -0.13100
H219        H  0.41474097  0.17697557  0.93928701     0.13100
H220        H  0.34162198  0.24128829  0.77056528     0.13100
H221        H  0.32838500  0.31120114  0.82032207     0.13100
H222        H  0.40150427  0.24688936  0.98904436     0.13100
C223        C  0.17693466  0.39801846  0.63930912    -0.13000
C224        C  0.15743175  0.36728769  0.60624738    -0.14500
C225        C  0.01447708  0.34626146  0.56622039    -0.13100
C226        C  0.06428472  0.34164368  0.53319495     0.09100
C227        C  0.04440063  0.34980772  0.97225761    -0.13100
C228        C  0.47766927  0.34628881  0.94436064    -0.13100
C229        C  0.42794436  0.34135974  0.97734317     0.09100
C230        C  0.44764540  0.34944222  0.53834134    -0.13100
H231        H  0.02745480  0.34687171  0.61402703     0.13100
H232        H  0.07868592  0.35928511  0.94554334     0.13100
H233        H  0.46470064  0.34699580  0.89655873     0.13100
H234        H  0.41317101  0.35864416  0.56512798     0.13100
C235        C  0.18219569  0.31165430  0.97178095    -0.13100
C236        C  0.19111031  0.31951558  0.53281645     0.09100
C237        C  0.25654915  0.31415260  0.56596715    -0.13100
C238        C  0.31026284  0.31123576  0.53832585    -0.13100
C239        C  0.30131508  0.31943169  0.97738286     0.09100
C240        C  0.23590354  0.31447637  0.94417530    -0.13100
H241        H  0.13528308  0.30183397  0.94498104     0.13100
H242        H  0.26607101  0.31207733  0.61369300     0.13100
H243        H  0.35724281  0.30114378  0.56500326     0.13100
H244        H  0.22640084  0.31264677  0.89643041     0.13100
C245        C  0.08570327  0.12089997  0.65335776    -0.13000
C246        C  0.06621207  0.09016864  0.62029355    -0.14500
C247        C  0.22865221  0.14192647  0.69338708    -0.13100
C248        C  0.17884472  0.14654390  0.72641279     0.09100
C249        C  0.19872779  0.13837554  0.78734959    -0.13100
C250        C  0.26545994  0.14188959  0.81524690    -0.13100
C251        C  0.31518518  0.14681895  0.78226491     0.09100
C252        C  0.29548319  0.13874077  0.72126603    -0.13100
H253        H  0.21567491  0.14131904  0.64558080     0.13100
H254        H  0.16444189  0.12889853  0.81406274     0.13100
H255        H  0.27842890  0.14117971  0.86304926     0.13100
H256        H  0.32995683  0.12953843  0.69447848     0.13100
C257        C  0.06093214  0.17652959  0.78782538    -0.13100
C258        C  0.05201776  0.16866838  0.72678990     0.09100
C259        C  0.48657872  0.17403034  0.69363905    -0.13100
C260        C  0.43286492  0.17694648  0.72128063    -0.13100
C261        C  0.44181314  0.16875006  0.78222383     0.09100
C262        C  0.00722452  0.17370653  0.81543104    -0.13100
H263        H  0.10784446  0.18635020  0.81462511     0.13100
H264        H  0.47705704  0.17610597  0.64591355     0.13100
H265        H  0.38588490  0.18703840  0.69460330     0.13100
H266        H  0.01672744  0.17553585  0.86317603     0.13100
C267        C  0.09727669  0.20599680  0.59689580    -0.13100
C268        C  0.11425042  0.20303290  0.65900680     0.09100
C269        C  0.13847962  0.24184940  0.69122741    -0.13100
C270        C  0.14584913  0.28219200  0.66271312    -0.13100
C271        C  0.12887693  0.28515535  0.60060193     0.09100
C272        C  0.10464624  0.24633912  0.56838162    -0.13100
H273        H  0.07810774  0.17742612  0.56980025     0.13100
H274        H  0.15221162  0.24073695  0.73898959     0.13100
H275        H  0.16501712  0.31076283  0.68980807     0.13100
H276        H  0.09091388  0.24745144  0.52061944     0.13100
C277        C  0.31635221  0.59012173  0.87044559    -0.13000
C278        C  0.33572783  0.62089218  0.90347710    -0.14500
C279        C  0.42681558  0.89805393  0.88916714    -0.13000
C280        C  0.40743023  0.86728356  0.85613821    -0.14500
C281        C  0.35471258  0.74629733  0.81838103    -0.13100
C282        C  0.37894763  0.78513153  0.85056051     0.09100
C283        C  0.39587753  0.78219844  0.91267870    -0.13100
C284        C  0.38843725  0.74187934  0.94123508    -0.13100
C285        C  0.36420308  0.70304494  0.90905554     0.09100
C286        C  0.34727252  0.70597824  0.84693742    -0.13100
H287        H  0.34101239  0.74737915  0.77061698     0.13100
H288        H  0.41505788  0.81077919  0.93974905     0.13100
H289        H  0.40213710  0.74079773  0.98899916     0.13100
H290        H  0.32809135  0.67739754  0.81986686     0.13100
C291        C  0.17777491  0.58990604  0.63836443    -0.13000
C292        C  0.15838672  0.62079167  0.60542067    -0.14500
C293        C  0.04540414  0.63860236  0.97146777    -0.13100
C294        C  0.06512148  0.64675700  0.53244466     0.09100
C295        C  0.01538360  0.64193739  0.56543376    -0.12700
C296        C  0.44863713  0.63848183  0.53753671    -0.13100
C297        C  0.42877379  0.64657754  0.97657346     0.09100
C298        C  0.47858536  0.64184912  0.94357215    -0.13100
H299        H  0.07986625  0.62929765  0.94471361     0.13100
H300        H  0.02835200  0.64128065  0.61323699     0.13100
H301        H  0.41433586  0.62909618  0.56427684     0.13100
H302        H  0.46562046  0.64118096  0.89576693     0.13100
C303        C  0.25713310  0.67375838  0.56547716    -0.13100
C304        C  0.19173193  0.66867780  0.53229883     0.09100
C305        C  0.18274385  0.67678230  0.97132792    -0.13100
C306        C  0.23645805  0.67390024  0.94368007    -0.13100
C307        C  0.30191775  0.66867281  0.97683703     0.09100
C308        C  0.31081446  0.67663845  0.53784607    -0.13100
H309        H  0.26664456  0.67566033  0.61321772     0.13100
H310        H  0.13573894  0.68679528  0.94462801     0.13100
H311        H  0.22692166  0.67590185  0.89594859     0.13100
H312        H  0.35770038  0.68656570  0.56459939     0.13100
C313        C  0.06539312  0.89828047  0.62124763    -0.13000
C314        C  0.08477115  0.86739437  0.65419379    -0.14500
C315        C  0.19774492  0.84957075  0.78815446    -0.13100
C316        C  0.17802791  0.84142506  0.72717514     0.09100
C317        C  0.22776628  0.84625064  0.69418786    -0.13100
C318        C  0.29451200  0.84970532  0.72208606    -0.13100
C319        C  0.31437565  0.84160080  0.78304687     0.09100
C320        C  0.26456416  0.84632283  0.81604941    -0.13100
H321        H  0.16328263  0.85886880  0.81491124     0.13100
H322        H  0.21479861  0.84691368  0.64638454     0.13100
H323        H  0.32881317  0.85909801  0.69534875     0.13100
H324        H  0.27752964  0.84698467  0.86385511     0.13100
C325        C  0.06040120  0.81138981  0.78827947    -0.13100
C326        C  0.05141420  0.81950787  0.72731180     0.09100
C327        C  0.48601215  0.81443551  0.69413163    -0.13100
C328        C  0.43233033  0.81155038  0.72176183    -0.13100
C329        C  0.44122866  0.81950270  0.78277410     0.09100
C330        C  0.00668783  0.81426697  0.81592863    -0.13100
H331        H  0.10740516  0.80137033  0.81497544     0.13100
H332        H  0.47650050  0.81254260  0.64639023     0.13100
H333        H  0.38544342  0.80162928  0.69500497     0.13100
H334        H  0.01622458  0.81225626  0.86365961     0.13100
C335        C  0.09760175  0.78244456  0.59714299    -0.13100
C336        C  0.11400147  0.78513669  0.65930248     0.09100
C337        C  0.13796352  0.74606329  0.69126365    -0.13100
C338        C  0.14554678  0.70574012  0.66247178    -0.13100
C339        C  0.12914811  0.70304816  0.60031231     0.09100
C340        C  0.10518487  0.74212128  0.56835112    -0.13100
H341        H  0.07872119  0.81122212  0.57021286     0.13100
H342        H  0.15127527  0.74694119  0.73904869     0.13100
H343        H  0.16442654  0.67696220  0.68940207     0.13100
H344        H  0.09187273  0.74124308  0.52056609     0.13100
C345        C  0.60734518  0.82856220  0.19368176    -0.02200
C346        C  0.63580483  0.65962253  0.06593312    -0.02200
C347        C  0.88520414  0.82859322  0.31643909    -0.02200
C348        C  0.85794644  0.65958331  0.44317678    -0.02200
C349        C  0.60800301  0.15956109  0.19308619    -0.02200
C350        C  0.63512648  0.32862622  0.06652111    -0.02200
C351        C  0.88584438  0.15968520  0.31580176    -0.02200
C352        C  0.85728546  0.32849336  0.44380610    -0.02200
O353        O  0.66492411  0.44867374  0.21376605    -0.74100
O354        O  0.73306214  0.54017929  0.32662934    -0.74200
O355        O  0.66527445  0.53997175  0.21317754    -0.74200
O356        O  0.73270539  0.44889043  0.32722195    -0.74300
O357        O  0.82806466  0.44815600  0.29659828    -0.74200
O358        O  0.76062389  0.53925012  0.18254067    -0.74200
O359        O  0.82842631  0.53945226  0.29601099    -0.74200
O360        O  0.76028154  0.44793828  0.18313749    -0.74200
Ni361      Ni  0.69556555  0.49445552  0.27130174     1.25400
Ni362      Ni  0.79778121  0.49367191  0.23846589     1.25400
C363        C  0.70165506  0.43320030  0.18031027     0.88000
C364        C  0.79168461  0.55492083  0.32946271     0.88000
C365        C  0.70213372  0.55468630  0.17956616     0.88000
C366        C  0.79119079  0.43345432  0.33020654     0.88200
O367        O  0.51045059  0.03929149  0.43238122    -0.74100
O368        O  0.57789413  0.94821449  0.04643219    -0.74200
O369        O  0.51010515  0.94800089  0.43297919    -0.74200
O370        O  0.57823325  0.03951347  0.04583809    -0.74300
O371        O  0.98287536  0.04024373  0.07646591    -0.74200
O372        O  0.91474205  0.94872472  0.46359898    -0.74200
O373        O  0.98254405  0.94893303  0.07706807    -0.74200
O374        O  0.91509226  0.04002064  0.46300635    -0.74200
Ni375      Ni  0.54759727  0.99372857  0.48830443     1.25400
Ni376      Ni  0.94538193  0.99450764  0.02114060     1.25400
C377        C  0.95196300  0.05472438  0.42939686     0.88000
C378        C  0.54103550  0.93349919  0.08004404     0.88000
C379        C  0.95148418  0.93325662  0.43014765     0.88000
C380        C  0.54149953  0.05498519  0.07929283     0.88200
C381        C  0.83477417  0.36734737  0.40435980    -0.13000
C382        C  0.81549993  0.39824376  0.37141441    -0.14500
C383        C  0.90836073  0.12083039  0.35524612    -0.13000
C384        C  0.92764604  0.08993403  0.38818884    -0.14500
C385        C  0.89571010  0.20574517  0.41240375    -0.13100
C386        C  0.87916877  0.20307826  0.35024232     0.09100
C387        C  0.85504140  0.24214499  0.31834781    -0.13100
C388        C  0.84741668  0.28243203  0.34720566    -0.13100
C389        C  0.86395936  0.28509936  0.40936701     0.09100
C390        C  0.88808549  0.24603242  0.44126178    -0.13100
H391        H  0.91474083  0.17697542  0.43928699     0.13100
H392        H  0.84162199  0.24128828  0.27056528     0.13100
H393        H  0.82838517  0.31120126  0.32032209     0.13100
H394        H  0.90150449  0.24688929  0.48904436     0.13100
C395        C  0.67693487  0.39801845  0.13930912    -0.13000
C396        C  0.65743175  0.36728771  0.10624742    -0.14500
C397        C  0.51447702  0.34626140  0.06622046    -0.13100
C398        C  0.56428469  0.34164367  0.03319505     0.09100
C399        C  0.54440064  0.34980772  0.47225761    -0.13100
C400        C  0.97766916  0.34628895  0.44436059    -0.13100
C401        C  0.92794432  0.34135976  0.47734316     0.09100
C402        C  0.94764540  0.34944217  0.03834135    -0.13100
H403        H  0.52745474  0.34687170  0.11402709     0.13100
H404        H  0.57868596  0.35928506  0.44554332     0.13100
H405        H  0.96470042  0.34699606  0.39655862     0.13100
H406        H  0.91317101  0.35864415  0.06512797     0.13100
C407        C  0.68219565  0.31165418  0.47178101    -0.13100
C408        C  0.69111029  0.31951565  0.03281656     0.09100
C409        C  0.75654913  0.31415256  0.06596736    -0.13100
C410        C  0.81026285  0.31123567  0.03832600    -0.13100
C411        C  0.80131506  0.31943162  0.47738290     0.09100
C412        C  0.73590352  0.31447628  0.44417547    -0.13100
H413        H  0.63528306  0.30183388  0.44498111     0.13100
H414        H  0.76607088  0.31207727  0.11369277     0.13100
H415        H  0.85724276  0.30114370  0.06500341     0.13100
H416        H  0.72640074  0.31264666  0.39643013     0.13100
C417        C  0.58570312  0.12090009  0.15335770    -0.13000
C418        C  0.56621195  0.09016875  0.12029345    -0.14500
C419        C  0.72865219  0.14192643  0.19338708    -0.13100
C420        C  0.67884469  0.14654386  0.22641278     0.09100
C421        C  0.69872776  0.13837546  0.28734958    -0.13100
C422        C  0.76545994  0.14188951  0.31524690    -0.13100
C423        C  0.81518520  0.14681892  0.28226493     0.09100
C424        C  0.79548323  0.13874086  0.22126601    -0.13100
H425        H  0.71567494  0.14131894  0.14558082     0.13100
H426        H  0.66444185  0.12889843  0.31406270     0.13100
H427        H  0.77842888  0.14117959  0.36304925     0.13100
H428        H  0.82995664  0.12953852  0.19447862     0.13100
C429        C  0.56093212  0.17652960  0.28782541    -0.13100
C430        C  0.55201774  0.16866853  0.22678991     0.09100
C431        C  0.98657871  0.17403051  0.19363904    -0.13100
C432        C  0.93286490  0.17694646  0.22128062    -0.13100
C433        C  0.94181316  0.16875005  0.28222382     0.09100
C434        C  0.50722447  0.17370664  0.31543105    -0.13100
H435        H  0.60784448  0.18635009  0.31462520     0.13100
H436        H  0.97705700  0.17610619  0.14591357     0.13100
H437        H  0.88588487  0.18703840  0.19460330     0.13100
H438        H  0.51672736  0.17553601  0.36317601     0.13100
C439        C  0.59727664  0.20599690  0.09689579    -0.13100
C440        C  0.61425048  0.20303298  0.15900681     0.09100
C441        C  0.63847985  0.24184944  0.19122742    -0.13100
C442        C  0.64584910  0.28219209  0.16271315    -0.13100
C443        C  0.62887687  0.28515544  0.10060198     0.09100
C444        C  0.60464621  0.24633923  0.06838164    -0.13100
H445        H  0.57810776  0.17742630  0.06980026     0.13100
H446        H  0.65221203  0.24073698  0.23898956     0.13100
H447        H  0.66501696  0.31076292  0.18980811     0.13100
H448        H  0.59091394  0.24745154  0.02061949     0.13100
C449        C  0.81635242  0.59012178  0.37044551    -0.13000
C450        C  0.83572791  0.62089218  0.40347713    -0.14500
C451        C  0.92681566  0.89805390  0.38916719    -0.13000
C452        C  0.90743032  0.86728351  0.35613827    -0.14500
C453        C  0.85471248  0.74629736  0.31838102    -0.13100
C454        C  0.87894763  0.78513151  0.35056051     0.09100
C455        C  0.89587749  0.78219840  0.41267871    -0.13100
C456        C  0.88843714  0.74187929  0.44123508    -0.13100
C457        C  0.86420296  0.70304492  0.40905552     0.09100
C458        C  0.84727243  0.70597823  0.34693738    -0.13100
H459        H  0.84101228  0.74737922  0.27061699     0.13100
H460        H  0.91505785  0.81077911  0.43974908     0.13100
H461        H  0.90213696  0.74079764  0.48899913     0.13100
H462        H  0.82809131  0.67739758  0.31986682     0.13100
C463        C  0.67777518  0.58990600  0.13836439    -0.13000
C464        C  0.65838691  0.62079164  0.10542064    -0.14500
C465        C  0.54540410  0.63860236  0.47146785    -0.13100
C466        C  0.56512144  0.64675704  0.03244464     0.09100
C467        C  0.51538347  0.64193749  0.06543361    -0.12700
C468        C  0.94863726  0.63848180  0.03753662    -0.13100
C469        C  0.92877384  0.64657768  0.47657355     0.09100
C470        C  0.97858539  0.64184932  0.44357219    -0.13100
H471        H  0.57986612  0.62929762  0.44471371     0.13100
H472        H  0.52835190  0.64128082  0.11323730     0.13100
H473        H  0.91433579  0.62909613  0.06427699     0.13100
H474        H  0.96562046  0.64118124  0.39576697     0.13100
C475        C  0.75713307  0.67375837  0.06547716    -0.13100
C476        C  0.69173188  0.66867793  0.03229882     0.09100
C477        C  0.68274379  0.67678220  0.47132793    -0.13100
C478        C  0.73645800  0.67390017  0.44368008    -0.13100
C479        C  0.80191769  0.66867276  0.47683704     0.09100
C480        C  0.81081444  0.67663838  0.03784609    -0.13100
H481        H  0.76664455  0.67566021  0.11321772     0.13100
H482        H  0.63573889  0.68679526  0.44462807     0.13100
H483        H  0.72692161  0.67590186  0.39594859     0.13100
H484        H  0.85770039  0.68656549  0.06459946     0.13100
C485        C  0.56539314  0.89828043  0.12124765    -0.13000
C486        C  0.58477110  0.86739432  0.15419378    -0.14500
C487        C  0.69774498  0.84957067  0.28815444    -0.13100
C488        C  0.67802795  0.84142499  0.22717514     0.09100
C489        C  0.72776634  0.84625056  0.19418787    -0.13100
C490        C  0.79451213  0.84970530  0.22208600    -0.13100
C491        C  0.81437575  0.84160085  0.28304687     0.09100
C492        C  0.76456423  0.84632280  0.31604938    -0.13100
H493        H  0.66328262  0.85886868  0.31491126     0.13100
H494        H  0.71479867  0.84691357  0.14638457     0.13100
H495        H  0.82881303  0.85909788  0.19534882     0.13100
H496        H  0.77752965  0.84698460  0.36385508     0.13100
C497        C  0.56040115  0.81138979  0.28827948    -0.13100
C498        C  0.55141417  0.81950785  0.22731181     0.09100
C499        C  0.98601214  0.81443562  0.19413162    -0.13100
C500        C  0.93233038  0.81155033  0.22176187    -0.13100
C501        C  0.94122876  0.81950269  0.28277413     0.09100
C502        C  0.50668778  0.81426708  0.31592863    -0.13100
H503        H  0.60740506  0.80137029  0.31497546     0.13100
H504        H  0.97650043  0.81254280  0.14639019     0.13100
H505        H  0.88544354  0.80162912  0.19500510     0.13100
H506        H  0.51622454  0.81225646  0.36365965     0.13100
C507        C  0.59760175  0.78244448  0.09714299    -0.13100
C508        C  0.61400138  0.78513666  0.15930245     0.09100
C509        C  0.63796348  0.74606329  0.19126367    -0.13100
C510        C  0.64554670  0.70574009  0.16247184    -0.13100
C511        C  0.62914811  0.70304813  0.10031236     0.09100
C512        C  0.60518508  0.74212127  0.06835113    -0.13100
H513        H  0.57872106  0.81122217  0.07021267     0.13100
H514        H  0.65127524  0.74694124  0.23904869     0.13100
H515        H  0.66442635  0.67696221  0.18940212     0.13100
H516        H  0.59187319  0.74124309  0.02056610     0.13100
C517        C  0.60734520  0.82856224  0.69368177    -0.02200
C518        C  0.63580482  0.65962252  0.56593312    -0.02200
C519        C  0.88520416  0.82859323  0.81643907    -0.02200
C520        C  0.85794644  0.65958330  0.94317675    -0.02200
C521        C  0.60800304  0.15956097  0.69308620    -0.02200
C522        C  0.63512648  0.32862616  0.56652112    -0.02200
C523        C  0.88584429  0.15968523  0.81580177    -0.02200
C524        C  0.85728548  0.32849340  0.94380610    -0.02200
O525        O  0.66492413  0.44867378  0.71376604    -0.74100
O526        O  0.73306221  0.54017922  0.82662940    -0.74200
O527        O  0.66527435  0.53997182  0.71317763    -0.74200
O528        O  0.73270542  0.44889046  0.82722195    -0.74300
O529        O  0.82806470  0.44815608  0.79659830    -0.74200
O530        O  0.76062371  0.53925020  0.68254064    -0.74200
O531        O  0.82842631  0.53945234  0.79601093    -0.74200
O532        O  0.76028157  0.44793832  0.68313751    -0.74200
Ni533      Ni  0.69556557  0.49445555  0.77130175     1.25400
Ni534      Ni  0.79778119  0.49367198  0.73846586     1.25400
C535        C  0.70165510  0.43320030  0.68031031     0.88000
C536        C  0.79168464  0.55492081  0.82946274     0.88000
C537        C  0.70213355  0.55468636  0.67956619     0.88000
C538        C  0.79119081  0.43345436  0.83020651     0.88200
O539        O  0.51045055  0.03929133  0.93238115    -0.74100
O540        O  0.57789404  0.94821457  0.54643215    -0.74200
O541        O  0.51010523  0.94800072  0.93297926    -0.74200
O542        O  0.57823327  0.03951355  0.54583807    -0.74300
O543        O  0.98287534  0.04024379  0.57646586    -0.74200
O544        O  0.91474192  0.94872475  0.96359895    -0.74200
O545        O  0.98254408  0.94893308  0.57706808    -0.74200
O546        O  0.91509231  0.04002068  0.96300640    -0.74200
Ni547      Ni  0.54759729  0.99372843  0.98830443     1.25400
Ni548      Ni  0.94538195  0.99450766  0.52114059     1.25400
C549        C  0.95196304  0.05472437  0.92939687     0.88000
C550        C  0.54103539  0.93349920  0.58004398     0.88000
C551        C  0.95148406  0.93325661  0.93014764     0.88000
C552        C  0.54149954  0.05498521  0.57929282     0.88200
C553        C  0.83477420  0.36734740  0.90435979    -0.13000
C554        C  0.81549990  0.39824373  0.87141432    -0.14500
C555        C  0.90836056  0.12083043  0.85524616    -0.13000
C556        C  0.92764606  0.08993408  0.88818887    -0.14500
C557        C  0.89571007  0.20574523  0.91240377    -0.13100
C558        C  0.87916863  0.20307828  0.85024234     0.09100
C559        C  0.85504129  0.24214499  0.81834781    -0.13100
C560        C  0.84741670  0.28243206  0.84720563    -0.13100
C561        C  0.86395936  0.28509941  0.90936699     0.09100
C562        C  0.88808551  0.24603250  0.94126178    -0.13100
H563        H  0.91474090  0.17697553  0.93928701     0.13100
H564        H  0.84162191  0.24128827  0.77056529     0.13100
H565        H  0.82838527  0.31120125  0.82032203     0.13100
H566        H  0.90150457  0.24688939  0.98904435     0.13100
C567        C  0.67693489  0.39801846  0.63930912    -0.13000
C568        C  0.65743178  0.36728770  0.60624741    -0.14500
C569        C  0.51447704  0.34626145  0.56622046    -0.13100
C570        C  0.56428470  0.34164367  0.53319505     0.09100
C571        C  0.54440063  0.34980773  0.97225762    -0.13100
C572        C  0.97766925  0.34628881  0.94436064    -0.13100
C573        C  0.92794434  0.34135976  0.97734318     0.09100
C574        C  0.94764542  0.34944221  0.53834132    -0.13100
H575        H  0.52745473  0.34687171  0.61402709     0.13100
H576        H  0.57868594  0.35928513  0.94554335     0.13100
H577        H  0.96470062  0.34699581  0.89655874     0.13100
H578        H  0.91317107  0.35864414  0.56512798     0.13100
C579        C  0.68219565  0.31165429  0.97178100    -0.13100
C580        C  0.69111029  0.31951557  0.53281657     0.09100
C581        C  0.75654916  0.31415260  0.56596737    -0.13100
C582        C  0.81026284  0.31123571  0.53832599    -0.13100
C583        C  0.80131507  0.31943168  0.97738292     0.09100
C584        C  0.73590354  0.31447637  0.94417547    -0.13100
H585        H  0.63528307  0.30183398  0.94498111     0.13100
H586        H  0.76607093  0.31207739  0.61369279     0.13100
H587        H  0.85724285  0.30114376  0.56500345     0.13100
H588        H  0.72640076  0.31264675  0.89643013     0.13100
C589        C  0.58570324  0.12089994  0.65335777    -0.13000
C590        C  0.56621202  0.09016863  0.62029353    -0.14500
C591        C  0.72865224  0.14192645  0.69338707    -0.13100
C592        C  0.67884473  0.14654385  0.72641278     0.09100
C593        C  0.69872778  0.13837553  0.78734958    -0.13100
C594        C  0.76545992  0.14188959  0.81524688    -0.13100
C595        C  0.81518517  0.14681894  0.78226491     0.09100
C596        C  0.79548328  0.13874075  0.72126600    -0.13100
H597        H  0.71567500  0.14131901  0.64558081     0.13100
H598        H  0.66444188  0.12889852  0.81406271     0.13100
H599        H  0.77842885  0.14117972  0.86304923     0.13100
H600        H  0.82995665  0.12953844  0.69447869     0.13100
C601        C  0.56093213  0.17652958  0.78782538    -0.13100
C602        C  0.55201776  0.16866835  0.72678991     0.09100
C603        C  0.98657872  0.17403034  0.69363905    -0.13100
C604        C  0.93286492  0.17694649  0.72128064    -0.13100
C605        C  0.94181313  0.16875007  0.78222384     0.09100
C606        C  0.50722451  0.17370653  0.81543104    -0.13100
H607        H  0.60784445  0.18635019  0.81462512     0.13100
H608        H  0.97705703  0.17610598  0.64591355     0.13100
H609        H  0.88588490  0.18703846  0.69460333     0.13100
H610        H  0.51672743  0.17553586  0.86317603     0.13100
C611        C  0.59727661  0.20599677  0.59689579    -0.13100
C612        C  0.61425046  0.20303287  0.65900682     0.09100
C613        C  0.63847983  0.24184935  0.69122741    -0.13100
C614        C  0.64584914  0.28219198  0.66271312    -0.13100
C615        C  0.62887687  0.28515535  0.60060196     0.09100
C616        C  0.60464623  0.24633911  0.56838164    -0.13100
H617        H  0.57810772  0.17742623  0.56980032     0.13100
H618        H  0.65221198  0.24073689  0.73898957     0.13100
H619        H  0.66501704  0.31076285  0.68980807     0.13100
H620        H  0.59091393  0.24745140  0.52061945     0.13100
C621        C  0.81635243  0.59012172  0.87044558    -0.13000
C622        C  0.83572786  0.62089219  0.90347711    -0.14500
C623        C  0.92681553  0.89805394  0.88916715    -0.13000
C624        C  0.90743030  0.86728355  0.85613822    -0.14500
C625        C  0.85471255  0.74629734  0.81838103    -0.13100
C626        C  0.87894767  0.78513152  0.85056050     0.09100
C627        C  0.89587749  0.78219844  0.91267870    -0.13100
C628        C  0.88843718  0.74187935  0.94123508    -0.13100
C629        C  0.86420303  0.70304494  0.90905555     0.09100
C630        C  0.84727246  0.70597825  0.84693742    -0.13100
H631        H  0.84101237  0.74737915  0.77061698     0.13100
H632        H  0.91505785  0.81077919  0.93974905     0.13100
H633        H  0.90213703  0.74079773  0.98899916     0.13100
H634        H  0.82809129  0.67739755  0.81986686     0.13100
C635        C  0.67777494  0.58990604  0.63836444    -0.13000
C636        C  0.65838684  0.62079167  0.60542066    -0.14500
C637        C  0.54540411  0.63860235  0.97146780    -0.13100
C638        C  0.56512144  0.64675699  0.53244470     0.09100
C639        C  0.51538352  0.64193738  0.56543378    -0.12700
C640        C  0.94863726  0.63848185  0.53753668    -0.13100
C641        C  0.92877381  0.64657755  0.97657347     0.09100
C642        C  0.97858538  0.64184913  0.94357214    -0.13100
H643        H  0.57986623  0.62929764  0.94471365     0.13100
H644        H  0.52835187  0.64128063  0.61323700     0.13100
H645        H  0.91433575  0.62909619  0.56427706     0.13100
H646        H  0.96562045  0.64118096  0.89576691     0.13100
C647        C  0.75713307  0.67375840  0.56547715    -0.13100
C648        C  0.69173190  0.66867782  0.53229882     0.09100
C649        C  0.68274379  0.67678230  0.97132792    -0.13100
C650        C  0.73645801  0.67390024  0.94368007    -0.13100
C651        C  0.80191770  0.66867280  0.97683703     0.09100
C652        C  0.81081443  0.67663844  0.53784607    -0.13100
H653        H  0.76664453  0.67566034  0.61321771     0.13100
H654        H  0.63573889  0.68679529  0.94462801     0.13100
H655        H  0.72692161  0.67590185  0.89594859     0.13100
H656        H  0.85770036  0.68656563  0.56459939     0.13100
C657        C  0.56539308  0.89828046  0.62124763    -0.13000
C658        C  0.58477111  0.86739437  0.65419380    -0.14500
C659        C  0.69774500  0.84957074  0.78815446    -0.13100
C660        C  0.67802796  0.84142506  0.72717514     0.09100
C661        C  0.72776635  0.84625064  0.69418787    -0.13100
C662        C  0.79451215  0.84970533  0.72208600    -0.13100
C663        C  0.81437576  0.84160081  0.78304685     0.09100
C664        C  0.76456426  0.84632283  0.81604937    -0.13100
H665        H  0.66328271  0.85886876  0.81491125     0.13100
H666        H  0.71479869  0.84691370  0.64638457     0.13100
H667        H  0.82881306  0.85909799  0.69534887     0.13100
H668        H  0.77752970  0.84698467  0.86385508     0.13100
C669        C  0.56040111  0.81138983  0.78827949    -0.13100
C670        C  0.55141416  0.81950787  0.72731182     0.09100
C671        C  0.98601219  0.81443551  0.69413162    -0.13100
C672        C  0.93233040  0.81155037  0.72176187    -0.13100
C673        C  0.94122878  0.81950270  0.78277413     0.09100
C674        C  0.50668770  0.81426697  0.81592861    -0.13100
H675        H  0.60740507  0.80137036  0.81497548     0.13100
H676        H  0.97650049  0.81254260  0.64639021     0.13100
H677        H  0.88544353  0.80162922  0.69500507     0.13100
H678        H  0.51622442  0.81225627  0.86365960     0.13100
C679        C  0.59760177  0.78244456  0.59714298    -0.13100
C680        C  0.61400142  0.78513669  0.65930247     0.09100
C681        C  0.63796346  0.74606329  0.69126366    -0.13100
C682        C  0.64554672  0.70574011  0.66247180    -0.13100
C683        C  0.62914815  0.70304815  0.60031232     0.09100
C684        C  0.60518512  0.74212131  0.56835112    -0.13100
H685        H  0.57872117  0.81122210  0.57021285     0.13100
H686        H  0.65127521  0.74694119  0.73904869     0.13100
H687        H  0.66442641  0.67696218  0.68940208     0.13100
H688        H  0.59187321  0.74124315  0.52056608     0.13100
loop_ 
_geom_bond_atom_site_label_1 
_geom_bond_atom_site_label_2 
_geom_bond_distance 
_geom_bond_site_symmetry_2 
_ccdc_geom_bond_type 
C1          C142   1.485       .  S
C1          C144   1.551       .  S
C1          C154   1.551       .  S
C1          C164   1.537       .  S
C2          C120   1.485       .  S
C2          C122   1.551       .  S
C2          C132   1.551       .  S
C2          C167   1.537       .  S
C3          C108   1.484       .  S
C3          C110   1.536       .  S
C3          C147   1.551       .  S
C3          C157   1.551       .  S
C4          C106   1.484       .  S
C4          C113   1.536       .  S
C4          C125   1.551       .  S
C4          C135   1.551       .  S
C5           C73   1.484       .  S
C5           C76   1.551       .  S
C5           C86   1.551       .  S
C5           C96   1.536       .  S
C6           C52   1.484       .  S
C6           C54   1.551       .  S
C6           C64   1.551       .  S
C6           C99   1.536       .  S
C7           C39   1.484       .  S
C7           C42   1.537       .  S
C7           C79   1.551       .  S
C7           C89   1.551       .  S
C8           C37   1.484       .  S
C8           C45   1.537       .  S
C8           C57   1.551       .  S
C8           C67   1.551       .  S
O9          Ni17   1.917       .  S
O9           C19   1.279       .  A
O10         Ni17   1.917       .  S
O10          C20   1.279       .  A
O11         Ni17   1.917       .  S
O11          C21   1.280       .  A
O12         Ni17   1.917       .  S
O12          C22   1.280       .  A
O13         Ni18   1.917       .  S
O13          C22   1.280       .  A
O14         Ni18   1.917       .  S
O14          C21   1.280       .  A
O15         Ni18   1.917       .  S
O15          C20   1.279       .  A
O16         Ni18   1.917       .  S
O16          C19   1.280       .  A
Ni17        Ni18   2.395       .  S
C19          C51   1.433       .  S
C20         C105   1.433       .  S
C21         C119   1.433       .  S
C22          C38   1.433       .  S
O23         Ni31   1.917   1_545  S
O23         C377   1.280   1_455  A
O24        Ni203   1.917   1_554  S
O24          C34   1.280       .  A
O25         Ni31   1.917       .  S
O25         C379   1.280   1_455  A
O26        Ni203   1.917   1_544  S
O26          C36   1.279       .  A
O27         Ni32   1.917   1_545  S
O27         C380   1.280       .  A
O28        Ni204   1.917       .  S
O28          C35   1.279       .  A
O29         Ni32   1.917       .  S
O29         C378   1.280       .  A
O30        Ni204   1.917   1_545  S
O30          C33   1.280       .  A
Ni31        O196   1.917       .  S
Ni31        O198   1.917   1_565  S
Ni31       Ni548   2.395   1_455  S
Ni32        O200   1.917   1_554  S
Ni32        O202   1.917   1_564  S
Ni32       Ni547   2.395   1_554  S
C33         O367   1.280       .  A
C33          C40   1.433       .  S
C34         O373   1.280   1_455  A
C34         C141   1.433       .  S
C35         O369   1.280       .  A
C35         C107   1.433       .  S
C36         O371   1.280   1_455  A
C36          C74   1.433       .  S
C37          C38   1.206       .  T
C39          C40   1.206       .  T
C41          C42   1.410       .  A
C41          C46   1.395       .  A
C41          H47   1.081       .  S
C42          C43   1.408       .  A
C43          C44   1.395       .  A
C43          H48   1.083       .  S
C44          C45   1.410       .  A
C44          H49   1.081       .  S
C45          C46   1.408       .  A
C46          H50   1.083       .  S
C51          C52   1.206       .  T
C53          C54   1.414       .  A
C53         C402   1.398   1_455  A
C53          H59   1.083       .  S
C54         C227   1.406   1_554  A
C55         C226   1.406       .  A
C55         C400   1.398   1_455  A
C55          H60   1.075       .  S
C56          C57   1.415       .  A
C56         C399   1.398       .  A
C56          H61   1.083       .  S
C57         C230   1.406       .  A
C58         C397   1.398       .  A
C58         C229   1.406   1_554  A
C58          H62   1.075       .  S
C63          C68   1.398       .  A
C63         C236   1.407       .  A
C63          H69   1.076       .  S
C64          C65   1.415       .  A
C64         C235   1.407   1_554  A
C65          C66   1.398       .  A
C65          H70   1.083       .  S
C66         C239   1.407   1_554  A
C66          H71   1.076       .  S
C67          C68   1.415       .  A
C67         C238   1.407       .  A
C68          H72   1.083       .  S
C73          C74   1.206       .  T
C75          C76   1.414       .  A
C75          C80   1.398       .  A
C75          H81   1.083       .  S
C76          C77   1.406       .  A
C77          C78   1.398       .  A
C77          H82   1.075       .  S
C78          C79   1.415       .  A
C78          H83   1.083       .  S
C79          C80   1.406       .  A
C80          H84   1.075       .  S
C85          C86   1.407       .  A
C85          C90   1.398       .  A
C85          H91   1.076       .  S
C86         C431   1.415   1_455  A
C87          C88   1.398       .  A
C87         C430   1.415       .  A
C87          H92   1.083       .  S
C88          C89   1.407       .  A
C88          H93   1.076       .  S
C89         C434   1.415       .  A
C90         C433   1.415   1_455  A
C90          H94   1.083       .  S
C95          C96   1.410       .  A
C95         C100   1.395       .  A
C95         H101   1.081       .  S
C96          C97   1.408       .  A
C97          C98   1.395       .  A
C97         H102   1.083       .  S
C98          C99   1.410       .  A
C98         H103   1.081       .  S
C99         C100   1.408       .  A
C100        H104   1.083       .  S
C105        C106   1.206       .  T
C107        C108   1.206       .  T
C109        C110   1.408       .  A
C109        C114   1.395       .  A
C109        H115   1.083       .  S
C110        C111   1.410       .  A
C111        C112   1.395       .  A
C111        H116   1.081       .  S
C112        C113   1.408       .  A
C112        H117   1.083       .  S
C113        C114   1.410       .  A
C114        H118   1.081       .  S
C119        C120   1.206       .  T
C121        C294   1.406       .  A
C121        C470   1.398   1_455  A
C121        H127   1.075       .  S
C122        C123   1.414       .  A
C122        C293   1.406   1_554  A
C123        C468   1.398   1_455  A
C123        H128   1.083       .  S
C124        C467   1.398       .  A
C124        C297   1.406   1_554  A
C124        H129   1.075       .  S
C125        C126   1.414       .  A
C125        C296   1.406       .  A
C126        C465   1.398       .  A
C126        H130   1.083       .  S
C131        C132   1.415       .  A
C131        C136   1.398       .  A
C131        H137   1.083       .  S
C132        C305   1.407   1_554  A
C133        C134   1.398       .  A
C133        C304   1.407       .  A
C133        H138   1.076       .  S
C134        C135   1.415       .  A
C134        H139   1.083       .  S
C135        C308   1.407       .  A
C136        C307   1.407   1_554  A
C136        H140   1.076       .  S
C141        C142   1.206       .  T
C143        C144   1.406       .  A
C143        C148   1.398       .  A
C143        H149   1.075       .  S
C144        C145   1.414       .  A
C145        C146   1.398       .  A
C145        H150   1.083       .  S
C146        C147   1.406       .  A
C146        H151   1.075       .  S
C147        C148   1.414       .  A
C148        H152   1.083       .  S
C153        C154   1.407       .  A
C153        C158   1.398       .  A
C153        H159   1.076       .  S
C154        C499   1.415   1_455  A
C155        C156   1.398       .  A
C155        C498   1.415       .  A
C155        H160   1.083       .  S
C156        C157   1.407       .  A
C156        H161   1.076       .  S
C157        C502   1.415       .  A
C158        C501   1.415   1_455  A
C158        H162   1.083       .  S
C163        C164   1.410       .  A
C163        C168   1.395       .  A
C163        H169   1.081       .  S
C164        C165   1.408       .  A
C165        C166   1.395       .  A
C165        H170   1.083       .  S
C166        C167   1.410       .  A
C166        H171   1.081       .  S
C167        C168   1.408       .  A
C168        H172   1.083       .  S
C173        C314   1.485       .  S
C173        C316   1.551       .  S
C173        C326   1.551       .  S
C173        C336   1.537       .  S
C174        C292   1.485       .  S
C174        C294   1.551       .  S
C174        C304   1.551       .  S
C174        C339   1.537       .  S
C175        C280   1.484       .  S
C175        C282   1.536       .  S
C175        C319   1.551       .  S
C175        C329   1.551       .  S
C176        C278   1.484       .  S
C176        C285   1.536       .  S
C176        C297   1.551       .  S
C176        C307   1.551       .  S
C177        C245   1.484       .  S
C177        C248   1.551       .  S
C177        C258   1.551       .  S
C177        C268   1.536       .  S
C178        C224   1.484       .  S
C178        C226   1.551       .  S
C178        C236   1.551       .  S
C178        C271   1.536       .  S
C179        C211   1.484       .  S
C179        C214   1.537       .  S
C179        C251   1.551       .  S
C179        C261   1.551       .  S
C180        C209   1.484       .  S
C180        C217   1.537       .  S
C180        C229   1.551       .  S
C180        C239   1.551       .  S
O181       Ni189   1.917       .  S
O181        C191   1.279       .  A
O182       Ni189   1.917       .  S
O182        C192   1.279       .  A
O183       Ni189   1.917       .  S
O183        C193   1.280       .  A
O184       Ni189   1.917       .  S
O184        C194   1.280       .  A
O185       Ni190   1.917       .  S
O185        C194   1.280       .  A
O186       Ni190   1.917       .  S
O186        C193   1.280       .  A
O187       Ni190   1.917       .  S
O187        C192   1.279       .  A
O188       Ni190   1.917       .  S
O188        C191   1.280       .  A
Ni189      Ni190   2.395       .  S
C191        C223   1.433       .  S
C192        C277   1.433       .  S
C193        C291   1.433       .  S
C194        C210   1.433       .  S
O195       Ni203   1.917   1_545  S
O195        C549   1.280   1_455  A
O196        C206   1.280       .  A
O197       Ni203   1.917       .  S
O197        C551   1.280   1_455  A
O198        C208   1.279       .  A
O199       Ni204   1.917   1_545  S
O199        C552   1.280       .  A
O200        C207   1.279       .  A
O201       Ni204   1.917       .  S
O201        C550   1.280       .  A
O202        C205   1.280       .  A
Ni203      Ni376   2.395   1_456  S
Ni204      Ni375   2.395       .  S
C205        O539   1.280       .  A
C205        C212   1.433       .  S
C206        O545   1.280   1_455  A
C206        C313   1.433       .  S
C207        O541   1.280       .  A
C207        C279   1.433       .  S
C208        O543   1.280   1_455  A
C208        C246   1.433       .  S
C209        C210   1.206       .  T
C211        C212   1.206       .  T
C213        C214   1.410       .  A
C213        C218   1.395       .  A
C213        H219   1.081       .  S
C214        C215   1.408       .  A
C215        C216   1.395       .  A
C215        H220   1.083       .  S
C216        C217   1.410       .  A
C216        H221   1.081       .  S
C217        C218   1.408       .  A
C218        H222   1.083       .  S
C223        C224   1.206       .  T
C225        C226   1.414       .  A
C225        C574   1.398   1_455  A
C225        H231   1.083       .  S
C227        C572   1.398   1_455  A
C227        H232   1.075       .  S
C228        C571   1.398       .  A
C228        C229   1.415       .  A
C228        H233   1.083       .  S
C230        C569   1.398       .  A
C230        H234   1.075       .  S
C235        C240   1.398       .  A
C235        H241   1.076       .  S
C236        C237   1.415       .  A
C237        C238   1.398       .  A
C237        H242   1.083       .  S
C238        H243   1.076       .  S
C239        C240   1.415       .  A
C240        H244   1.083       .  S
C245        C246   1.206       .  T
C247        C248   1.414       .  A
C247        C252   1.398       .  A
C247        H253   1.083       .  S
C248        C249   1.406       .  A
C249        C250   1.398       .  A
C249        H254   1.075       .  S
C250        C251   1.415       .  A
C250        H255   1.083       .  S
C251        C252   1.406       .  A
C252        H256   1.075       .  S
C257        C258   1.407       .  A
C257        C262   1.398       .  A
C257        H263   1.076       .  S
C258        C603   1.415   1_455  A
C259        C602   1.415       .  A
C259        C260   1.398       .  A
C259        H264   1.083       .  S
C260        C261   1.407       .  A
C260        H265   1.076       .  S
C261        C606   1.415       .  A
C262        C605   1.415   1_455  A
C262        H266   1.083       .  S
C267        C268   1.410       .  A
C267        C272   1.395       .  A
C267        H273   1.081       .  S
C268        C269   1.408       .  A
C269        C270   1.395       .  A
C269        H274   1.083       .  S
C270        C271   1.410       .  A
C270        H275   1.081       .  S
C271        C272   1.408       .  A
C272        H276   1.083       .  S
C277        C278   1.206       .  T
C279        C280   1.206       .  T
C281        C282   1.408       .  A
C281        C286   1.395       .  A
C281        H287   1.083       .  S
C282        C283   1.410       .  A
C283        C284   1.395       .  A
C283        H288   1.081       .  S
C284        C285   1.408       .  A
C284        H289   1.083       .  S
C285        C286   1.410       .  A
C286        H290   1.081       .  S
C291        C292   1.206       .  T
C293        C642   1.398   1_455  A
C293        H299   1.075       .  S
C294        C295   1.414       .  A
C295        C640   1.398   1_455  A
C295        H300   1.083       .  S
C296        C639   1.398       .  A
C296        H301   1.075       .  S
C297        C298   1.414       .  A
C298        C637   1.398       .  A
C298        H302   1.083       .  S
C303        C304   1.415       .  A
C303        C308   1.398       .  A
C303        H309   1.083       .  S
C305        C306   1.398       .  A
C305        H310   1.076       .  S
C306        C307   1.415       .  A
C306        H311   1.083       .  S
C308        H312   1.076       .  S
C313        C314   1.206       .  T
C315        C316   1.406       .  A
C315        C320   1.398       .  A
C315        H321   1.075       .  S
C316        C317   1.414       .  A
C317        C318   1.398       .  A
C317        H322   1.083       .  S
C318        C319   1.406       .  A
C318        H323   1.075       .  S
C319        C320   1.414       .  A
C320        H324   1.083       .  S
C325        C326   1.407       .  A
C325        C330   1.398       .  A
C325        H331   1.076       .  S
C326        C671   1.415   1_455  A
C327        C670   1.415       .  A
C327        C328   1.398       .  A
C327        H332   1.083       .  S
C328        C329   1.407       .  A
C328        H333   1.076       .  S
C329        C674   1.415       .  A
C330        C673   1.415   1_455  A
C330        H334   1.083       .  S
C335        C336   1.410       .  A
C335        C340   1.395       .  A
C335        H341   1.081       .  S
C336        C337   1.408       .  A
C337        C338   1.395       .  A
C337        H342   1.083       .  S
C338        C339   1.410       .  A
C338        H343   1.081       .  S
C339        C340   1.408       .  A
C340        H344   1.083       .  S
C345        C486   1.485       .  S
C345        C488   1.551       .  S
C345        C498   1.551       .  S
C345        C508   1.537       .  S
C346        C464   1.485       .  S
C346        C466   1.551       .  S
C346        C476   1.551       .  S
C346        C511   1.537       .  S
C347        C452   1.484       .  S
C347        C454   1.536       .  S
C347        C491   1.551       .  S
C347        C501   1.551       .  S
C348        C450   1.484       .  S
C348        C457   1.536       .  S
C348        C469   1.551       .  S
C348        C479   1.551       .  S
C349        C417   1.484       .  S
C349        C420   1.551       .  S
C349        C430   1.551       .  S
C349        C440   1.536       .  S
C350        C396   1.484       .  S
C350        C398   1.551       .  S
C350        C408   1.551       .  S
C350        C443   1.536       .  S
C351        C383   1.484       .  S
C351        C386   1.537       .  S
C351        C423   1.551       .  S
C351        C433   1.551       .  S
C352        C381   1.484       .  S
C352        C389   1.537       .  S
C352        C401   1.551       .  S
C352        C411   1.551       .  S
O353       Ni361   1.917       .  S
O353        C363   1.279       .  A
O354       Ni361   1.917       .  S
O354        C364   1.279       .  A
O355       Ni361   1.917       .  S
O355        C365   1.280       .  A
O356       Ni361   1.917       .  S
O356        C366   1.280       .  A
O357       Ni362   1.917       .  S
O357        C366   1.280       .  A
O358       Ni362   1.917       .  S
O358        C365   1.280       .  A
O359       Ni362   1.917       .  S
O359        C364   1.279       .  A
O360       Ni362   1.917       .  S
O360        C363   1.280       .  A
Ni361      Ni362   2.395       .  S
C363        C395   1.433       .  S
C364        C449   1.433       .  S
C365        C463   1.433       .  S
C366        C382   1.433       .  S
O367       Ni375   1.917   1_545  S
O368       Ni547   1.917   1_554  S
O368        C378   1.280       .  A
O369       Ni375   1.917       .  S
O370       Ni547   1.917   1_544  S
O370        C380   1.279       .  A
O371       Ni376   1.917   1_545  S
O372       Ni548   1.917       .  S
O372        C379   1.279       .  A
O373       Ni376   1.917       .  S
O374       Ni548   1.917   1_545  S
O374        C377   1.280       .  A
Ni375       O540   1.917       .  S
Ni375       O542   1.917   1_565  S
Ni376       O544   1.917   1_554  S
Ni376       O546   1.917   1_564  S
C377        C384   1.433       .  S
C378        C485   1.433       .  S
C379        C451   1.433       .  S
C380        C418   1.433       .  S
C381        C382   1.206       .  T
C383        C384   1.206       .  T
C385        C386   1.410       .  A
C385        C390   1.395       .  A
C385        H391   1.081       .  S
C386        C387   1.408       .  A
C387        C388   1.395       .  A
C387        H392   1.083       .  S
C388        C389   1.410       .  A
C388        H393   1.081       .  S
C389        C390   1.408       .  A
C390        H394   1.083       .  S
C395        C396   1.206       .  T
C397        C398   1.414       .  A
C397        H403   1.083       .  S
C398        C571   1.406   1_554  A
C399        C570   1.406       .  A
C399        H404   1.075       .  S
C400        C401   1.415       .  A
C400        H405   1.083       .  S
C401        C574   1.406       .  A
C402        C573   1.406   1_554  A
C402        H406   1.075       .  S
C407        C580   1.407       .  A
C407        C412   1.398       .  A
C407        H413   1.076       .  S
C408        C579   1.407   1_554  A
C408        C409   1.415       .  A
C409        C410   1.398       .  A
C409        H414   1.083       .  S
C410        C583   1.407   1_554  A
C410        H415   1.076       .  S
C411        C582   1.407       .  A
C411        C412   1.415       .  A
C412        H416   1.083       .  S
C417        C418   1.206       .  T
C419        C420   1.414       .  A
C419        C424   1.398       .  A
C419        H425   1.083       .  S
C420        C421   1.406       .  A
C421        C422   1.398       .  A
C421        H426   1.075       .  S
C422        C423   1.415       .  A
C422        H427   1.083       .  S
C423        C424   1.406       .  A
C424        H428   1.075       .  S
C429        C430   1.407       .  A
C429        C434   1.398       .  A
C429        H435   1.076       .  S
C431        C432   1.398       .  A
C431        H436   1.083       .  S
C432        C433   1.407       .  A
C432        H437   1.076       .  S
C434        H438   1.083       .  S
C439        C440   1.410       .  A
C439        C444   1.395       .  A
C439        H445   1.081       .  S
C440        C441   1.408       .  A
C441        C442   1.395       .  A
C441        H446   1.083       .  S
C442        C443   1.410       .  A
C442        H447   1.081       .  S
C443        C444   1.408       .  A
C444        H448   1.083       .  S
C449        C450   1.206       .  T
C451        C452   1.206       .  T
C453        C454   1.408       .  A
C453        C458   1.395       .  A
C453        H459   1.083       .  S
C454        C455   1.410       .  A
C455        C456   1.395       .  A
C455        H460   1.081       .  S
C456        C457   1.408       .  A
C456        H461   1.083       .  S
C457        C458   1.410       .  A
C458        H462   1.081       .  S
C463        C464   1.206       .  T
C465        C638   1.406       .  A
C465        H471   1.075       .  S
C466        C637   1.406   1_554  A
C466        C467   1.414       .  A
C467        H472   1.083       .  S
C468        C641   1.406   1_554  A
C468        H473   1.075       .  S
C469        C640   1.406       .  A
C469        C470   1.414       .  A
C470        H474   1.083       .  S
C475        C476   1.415       .  A
C475        C480   1.398       .  A
C475        H481   1.083       .  S
C476        C649   1.407   1_554  A
C477        C648   1.407       .  A
C477        C478   1.398       .  A
C477        H482   1.076       .  S
C478        C479   1.415       .  A
C478        H483   1.083       .  S
C479        C652   1.407       .  A
C480        C651   1.407   1_554  A
C480        H484   1.076       .  S
C485        C486   1.206       .  T
C487        C488   1.406       .  A
C487        C492   1.398       .  A
C487        H493   1.075       .  S
C488        C489   1.414       .  A
C489        C490   1.398       .  A
C489        H494   1.083       .  S
C490        C491   1.406       .  A
C490        H495   1.075       .  S
C491        C492   1.414       .  A
C492        H496   1.083       .  S
C497        C498   1.407       .  A
C497        C502   1.398       .  A
C497        H503   1.076       .  S
C499        C500   1.398       .  A
C499        H504   1.083       .  S
C500        C501   1.407       .  A
C500        H505   1.076       .  S
C502        H506   1.083       .  S
C507        C508   1.410       .  A
C507        C512   1.395       .  A
C507        H513   1.081       .  S
C508        C509   1.408       .  A
C509        C510   1.395       .  A
C509        H514   1.083       .  S
C510        C511   1.410       .  A
C510        H515   1.081       .  S
C511        C512   1.408       .  A
C512        H516   1.083       .  S
C517        C658   1.485       .  S
C517        C660   1.551       .  S
C517        C670   1.551       .  S
C517        C680   1.537       .  S
C518        C636   1.485       .  S
C518        C638   1.551       .  S
C518        C648   1.551       .  S
C518        C683   1.537       .  S
C519        C624   1.484       .  S
C519        C626   1.536       .  S
C519        C663   1.551       .  S
C519        C673   1.551       .  S
C520        C622   1.484       .  S
C520        C629   1.536       .  S
C520        C641   1.551       .  S
C520        C651   1.551       .  S
C521        C589   1.484       .  S
C521        C592   1.551       .  S
C521        C602   1.551       .  S
C521        C612   1.536       .  S
C522        C568   1.484       .  S
C522        C570   1.551       .  S
C522        C580   1.551       .  S
C522        C615   1.536       .  S
C523        C555   1.484       .  S
C523        C558   1.537       .  S
C523        C595   1.551       .  S
C523        C605   1.551       .  S
C524        C553   1.484       .  S
C524        C561   1.537       .  S
C524        C573   1.551       .  S
C524        C583   1.551       .  S
O525       Ni533   1.917       .  S
O525        C535   1.279       .  A
O526       Ni533   1.917       .  S
O526        C536   1.279       .  A
O527       Ni533   1.917       .  S
O527        C537   1.280       .  A
O528       Ni533   1.917       .  S
O528        C538   1.280       .  A
O529       Ni534   1.917       .  S
O529        C538   1.280       .  A
O530       Ni534   1.917       .  S
O530        C537   1.280       .  A
O531       Ni534   1.917       .  S
O531        C536   1.279       .  A
O532       Ni534   1.917       .  S
O532        C535   1.280       .  A
Ni533      Ni534   2.395       .  S
C535        C567   1.433       .  S
C536        C621   1.433       .  S
C537        C635   1.433       .  S
C538        C554   1.433       .  S
O539       Ni547   1.917   1_545  S
O540        C550   1.280       .  A
O541       Ni547   1.917       .  S
O542        C552   1.279       .  A
O543       Ni548   1.917   1_545  S
O544        C551   1.279       .  A
O545       Ni548   1.917       .  S
O546        C549   1.280       .  A
C549        C556   1.433       .  S
C550        C657   1.433       .  S
C551        C623   1.433       .  S
C552        C590   1.433       .  S
C553        C554   1.206       .  T
C555        C556   1.206       .  T
C557        C558   1.410       .  A
C557        C562   1.395       .  A
C557        H563   1.081       .  S
C558        C559   1.408       .  A
C559        C560   1.395       .  A
C559        H564   1.083       .  S
C560        C561   1.410       .  A
C560        H565   1.081       .  S
C561        C562   1.408       .  A
C562        H566   1.083       .  S
C567        C568   1.206       .  T
C569        C570   1.414       .  A
C569        H575   1.083       .  S
C571        H576   1.075       .  S
C572        C573   1.415       .  A
C572        H577   1.083       .  S
C574        H578   1.075       .  S
C579        C584   1.398       .  A
C579        H585   1.076       .  S
C580        C581   1.415       .  A
C581        C582   1.398       .  A
C581        H586   1.083       .  S
C582        H587   1.076       .  S
C583        C584   1.415       .  A
C584        H588   1.083       .  S
C589        C590   1.206       .  T
C591        C592   1.414       .  A
C591        C596   1.398       .  A
C591        H597   1.083       .  S
C592        C593   1.406       .  A
C593        C594   1.398       .  A
C593        H598   1.075       .  S
C594        C595   1.415       .  A
C594        H599   1.083       .  S
C595        C596   1.406       .  A
C596        H600   1.075       .  S
C601        C602   1.407       .  A
C601        C606   1.398       .  A
C601        H607   1.076       .  S
C603        C604   1.398       .  A
C603        H608   1.083       .  S
C604        C605   1.407       .  A
C604        H609   1.076       .  S
C606        H610   1.083       .  S
C611        C612   1.410       .  A
C611        C616   1.395       .  A
C611        H617   1.081       .  S
C612        C613   1.408       .  A
C613        C614   1.395       .  A
C613        H618   1.083       .  S
C614        C615   1.410       .  A
C614        H619   1.081       .  S
C615        C616   1.408       .  A
C616        H620   1.083       .  S
C621        C622   1.206       .  T
C623        C624   1.206       .  T
C625        C626   1.408       .  A
C625        C630   1.395       .  A
C625        H631   1.083       .  S
C626        C627   1.410       .  A
C627        C628   1.395       .  A
C627        H632   1.081       .  S
C628        C629   1.408       .  A
C628        H633   1.083       .  S
C629        C630   1.410       .  A
C630        H634   1.081       .  S
C635        C636   1.206       .  T
C637        H643   1.075       .  S
C638        C639   1.414       .  A
C639        H644   1.083       .  S
C640        H645   1.075       .  S
C641        C642   1.414       .  A
C642        H646   1.083       .  S
C647        C648   1.415       .  A
C647        C652   1.398       .  A
C647        H653   1.083       .  S
C649        C650   1.398       .  A
C649        H654   1.076       .  S
C650        C651   1.415       .  A
C650        H655   1.083       .  S
C652        H656   1.076       .  S
C657        C658   1.206       .  T
C659        C660   1.406       .  A
C659        C664   1.398       .  A
C659        H665   1.075       .  S
C660        C661   1.414       .  A
C661        C662   1.398       .  A
C661        H666   1.083       .  S
C662        C663   1.406       .  A
C662        H667   1.075       .  S
C663        C664   1.414       .  A
C664        H668   1.083       .  S
C669        C670   1.407       .  A
C669        C674   1.398       .  A
C669        H675   1.076       .  S
C671        C672   1.398       .  A
C671        H676   1.083       .  S
C672        C673   1.407       .  A
C672        H677   1.076       .  S
C674        H678   1.083       .  S
C679        C680   1.410       .  A
C679        C684   1.395       .  A
C679        H685   1.081       .  S
C680        C681   1.408       .  A
C681        C682   1.395       .  A
C681        H686   1.083       .  S
C682        C683   1.410       .  A
C682        H687   1.081       .  S
C683        C684   1.408       .  A
C684        H688   1.083       .  S
