geometry optimzed in LAMMPS
_audit_creation_date              2020-11-30 
_audit_creation_method            'lammps2cif' 
_symmetry_space_group_name_H-M    'P1' 
_symmetry_Int_Tables_number       1 
_symmetry_cell_setting            triclinic 
loop_ 
_symmetry_equiv_pos_as_xyz 
  x,y,z 
_cell_length_a                    47.98081007667611 
_cell_length_b                    47.98636820924011 
_cell_length_c                    48.060818064031274 
_cell_angle_alpha                 89.90764834348558 
_cell_angle_beta                  90.07584992243204 
_cell_angle_gamma                 90.27235942755296 
loop_ 
_atom_site_label 
_atom_site_type_symbol 
_atom_site_fract_x 
_atom_site_fract_y 
_atom_site_fract_z 
_atom_site_charge 
N1          N  0.44244307  0.67909374  0.99702429    -0.27660
N2          N  0.45708439  0.65594391  0.99916678    -0.35510
C3          C  0.43967530  0.63403583  0.00035008     0.00680
C4          C  0.41271146  0.64373046  0.99854072     0.06710
C5          C  0.41508879  0.67245342  0.99649858    -0.06390
H6          H  0.44617147  0.61258126  0.00249480     0.07380
H7          H  0.39828581  0.68735966  0.99544832     0.08580
Cu8        Cu  0.50003544  0.65486431  0.00045844     0.44170
Cu9        Cu  0.46161739  0.71800788  0.99674185     0.41990
Cu10       Cu  0.53922666  0.71823297  0.99619304     0.43880
N11         N  0.54300830  0.65619459  0.00002900    -0.35040
N12         N  0.55791804  0.67929981  0.99772451    -0.29300
C13         C  0.58521713  0.67268228  0.99829261    -0.05400
C14         C  0.58729033  0.64407990  0.00158843     0.06820
C15         C  0.56017708  0.63436760  0.00235556     0.00620
H16         H  0.60218360  0.68758168  0.99726133     0.08270
H17         H  0.55339722  0.61294537  0.00464857     0.07350
N18         N  0.51434424  0.75347419  0.99892560    -0.36490
N19         N  0.48674432  0.75335224  0.99921536    -0.28670
C20         C  0.47771085  0.77971793  0.00154553    -0.03910
C21         C  0.50060923  0.79729097  0.00309634     0.04700
C22         C  0.52347474  0.77993224  0.00106269     0.02790
H23         H  0.45599914  0.78566796  0.00203965     0.07900
H24         H  0.54518833  0.78606001  0.00061274     0.06730
N25         N  0.70610426  0.53033027  0.99891287    -0.27660
N26         N  0.68286757  0.51543400  0.99873831    -0.35510
C27         C  0.66092571  0.53261690  0.99897825     0.00680
C28         C  0.67068328  0.55970085  0.99894849     0.06710
C29         C  0.69947667  0.55762577  0.99897184    -0.06390
H30         H  0.63937734  0.52587332  0.99943655     0.07380
H31         H  0.71440129  0.57457294  0.99981192     0.08580
Cu32       Cu  0.68141227  0.47245896  0.99853561     0.44170
Cu33       Cu  0.74510369  0.51173040  0.00061957     0.41990
Cu34       Cu  0.74513809  0.43450906  0.99805527     0.43880
N35         N  0.68294446  0.42951499  0.99748915    -0.35040
N36         N  0.70636788  0.41515428  0.99737997    -0.29300
C37         C  0.70013590  0.38773596  0.99733556    -0.05400
C38         C  0.67140216  0.38498171  0.99700230     0.06820
C39         C  0.66121625  0.41180640  0.99741502     0.00620
H40         H  0.71530121  0.37114485  0.99794482     0.08270
H41         H  0.63958043  0.41799802  0.99806203     0.07350
N42         N  0.78057329  0.45944427  0.00014508    -0.36490
N43         N  0.78055608  0.48699056  0.00194350    -0.28670
C44         C  0.80704891  0.49611695  0.00371239    -0.03910
C45         C  0.82447588  0.47329643  0.00281434     0.04700
C46         C  0.80707331  0.45043983  0.00030357     0.02790
H47         H  0.81319257  0.51780941  0.00490832     0.07900
H48         H  0.81320950  0.42882422  0.99880380     0.06730
N49         N  0.44203191  0.26654546  0.99813578    -0.27660
N50         N  0.45654040  0.28952306  0.00300323    -0.35510
C51         C  0.43902019  0.31111352  0.00529627     0.00680
C52         C  0.41219745  0.30133633  0.00158101     0.06710
C53         C  0.41474174  0.27302025  0.99688232    -0.06390
H54         H  0.44536824  0.33244134  0.00910932     0.07380
H55         H  0.39805234  0.25821618  0.99326031     0.08580
Cu56       Cu  0.49952651  0.29107522  0.00532953     0.44170
Cu57       Cu  0.46074764  0.22770415  0.99487865     0.41990
Cu58       Cu  0.53761896  0.22781799  0.99663122     0.43880
N59         N  0.54252372  0.28961526  0.00364091    -0.35040
N60         N  0.55681376  0.26653338  0.99941070    -0.29300
C61         C  0.58418130  0.27290308  0.99828427    -0.05400
C62         C  0.58701780  0.30129236  0.00244162     0.06820
C63         C  0.56027355  0.31121598  0.00566543     0.00620
H64         H  0.60070492  0.25799892  0.99508733     0.08270
H65         H  0.55414521  0.33262985  0.00891303     0.07350
N66         N  0.51286163  0.19224107  0.99722620    -0.36490
N67         N  0.48528655  0.19210974  0.99625441    -0.28670
C68         C  0.47617125  0.16557322  0.99740230    -0.03910
C69         C  0.49903259  0.14823908  0.99961938     0.04700
C70         C  0.52193453  0.16584629  0.99916542     0.02790
H71         H  0.45446649  0.15937360  0.99707245     0.07900
H72         H  0.54364852  0.15993564  0.99997833     0.06730
N73         N  0.29298347  0.53002474  0.99833164    -0.27660
N74         N  0.31631992  0.51562402  0.00027689    -0.35510
C75         C  0.33795952  0.53329989  0.00224598     0.00680
C76         C  0.32787188  0.56017189  0.00140662     0.06710
C77         C  0.29925578  0.55746742  0.99865718    -0.06390
H78         H  0.35950081  0.52704657  0.00422855     0.07380
H79         H  0.28414086  0.57409111  0.99773924     0.08580
Cu80       Cu  0.31822066  0.47262309  0.00028884     0.44170
Cu81       Cu  0.25416829  0.51064051  0.99726049     0.41990
Cu82       Cu  0.25454001  0.43360512  0.00135093     0.43880
N83         N  0.31682453  0.42959197  0.99956070    -0.35040
N84         N  0.29345450  0.41491642  0.00019005    -0.29300
C85         C  0.29976860  0.38758274  0.99986643    -0.05400
C86         C  0.32847083  0.38519324  0.99863803     0.06820
C87         C  0.33859733  0.41214385  0.99873176     0.00620
H88         H  0.28466865  0.37078292  0.00064799     0.08270
H89         H  0.36023502  0.41860203  0.99852618     0.07350
N90         N  0.21887399  0.45795720  0.00052453    -0.36490
N91         N  0.21877159  0.48549617  0.99879406    -0.28670
C92         C  0.19223173  0.49432186  0.99816305    -0.03910
C93         C  0.17477163  0.47129141  0.99919461     0.04700
C94         C  0.19238991  0.44863275  0.00103912     0.02790
H95         H  0.18613928  0.51597577  0.99719073     0.07900
H96         H  0.18640713  0.42689364  0.00221211     0.06730
N97         N  0.00110797  0.53122782  0.70811166    -0.27660
N98         N  0.99885794  0.51620064  0.68524161    -0.35510
C99         C  0.99767199  0.53313028  0.66311968     0.00680
C100        C  0.99927438  0.56036516  0.67224516     0.06710
C101        C  0.00135243  0.55848590  0.70103625    -0.06390
H102        H  0.99531562  0.52609919  0.64187442     0.07380
H103        H  0.00207697  0.57553177  0.71570709     0.08580
Cu104      Cu  0.99632388  0.47343431  0.68461568     0.44170
Cu105      Cu  0.00217177  0.51204845  0.74696393     0.41990
Cu106      Cu  0.99915822  0.43343856  0.74634459     0.43880
N107        N  0.99636025  0.43060778  0.68459920    -0.35040
N108        N  0.99811938  0.41507165  0.70719488    -0.29300
C109        C  0.99976896  0.38805761  0.69953360    -0.05400
C110        C  0.99877848  0.38682881  0.67063520     0.06820
C111        C  0.99664791  0.41424914  0.66209181     0.00620
H112        H  0.00245385  0.37085083  0.71380944     0.08270
H113        H  0.99607923  0.42188203  0.64091822     0.07350
N114        N  0.99917314  0.45862855  0.78158170    -0.36490
N115        N  0.00076868  0.48622749  0.78183828    -0.28670
C116        C  0.00065012  0.49501890  0.80840148    -0.03910
C117        C  0.99842891  0.47202287  0.82560551     0.04700
C118        C  0.99774549  0.44932862  0.80795171     0.02790
H119        H  0.00180348  0.51662129  0.81471927     0.07900
H120        H  0.99665820  0.42757302  0.81383384     0.06730
N121        N  0.00120317  0.67967939  0.55794406    -0.27660
N122        N  0.99849985  0.65671780  0.54308060    -0.35510
C123        C  0.99596975  0.63476422  0.56010539     0.00680
C124        C  0.99645874  0.64417154  0.58723295     0.06710
C125        C  0.00031741  0.67281445  0.58520754    -0.06390
H126        H  0.99352955  0.61346992  0.55314287     0.07380
H127        H  0.00149369  0.68755748  0.60217071     0.08580
Cu128      Cu  0.99651143  0.65568660  0.50040430     0.44170
Cu129      Cu  0.00393465  0.71846119  0.53854575     0.41990
Cu130      Cu  0.99486447  0.71747253  0.46060568     0.43880
N131        N  0.99659102  0.65559357  0.45767856    -0.35040
N132        N  0.99660062  0.67831579  0.44219569    -0.29300
C133        C  0.99915158  0.67084226  0.41524134    -0.05400
C134        C  0.00121400  0.64199323  0.41406387     0.06820
C135        C  0.99885625  0.63316767  0.44134298     0.00620
H136        H  0.00027115  0.68527267  0.39797004     0.08270
H137        H  0.99920641  0.61195821  0.44894238     0.07350
N138        N  0.99710095  0.75290959  0.48548848    -0.36490
N139        N  0.00184320  0.75331174  0.51263413    -0.28670
C140        C  0.00374146  0.77997385  0.52101005    -0.03910
C141        C  0.99997665  0.79736005  0.49821255     0.04700
C142        C  0.99529194  0.77926956  0.47617734     0.02790
H143        H  0.00761602  0.78620560  0.54228725     0.07900
H144        H  0.99030532  0.78455077  0.45491302     0.06730
N145        N  0.99912220  0.52997640  0.29260076    -0.27660
N146        N  0.99498658  0.51493477  0.31526458    -0.35510
C147        C  0.99423151  0.53174197  0.33744447     0.00680
C148        C  0.99797989  0.55886810  0.32855537     0.06710
C149        C  0.00110301  0.55708639  0.29989090    -0.06390
H150        H  0.99205876  0.52461146  0.35869395     0.07380
H151        H  0.00559375  0.57397054  0.28564180     0.08580
Cu152      Cu  0.99313179  0.47209824  0.31618248     0.44170
Cu153      Cu  0.00309965  0.51118929  0.25382685     0.41990
Cu154      Cu  0.99518428  0.43346068  0.25368913     0.43880
N155        N  0.99396840  0.42923882  0.31554046    -0.35040
N156        N  0.99420579  0.41435099  0.29246735    -0.29300
C157        C  0.99528489  0.38708805  0.29926378    -0.05400
C158        C  0.99588461  0.38506844  0.32803568     0.06820
C159        C  0.99518085  0.41214487  0.33758547     0.00620
H160        H  0.99636238  0.37016674  0.28447715     0.08270
H161        H  0.99576600  0.41894656  0.35902470     0.07350
N162        N  0.99936692  0.45851775  0.21861427    -0.36490
N163        N  0.00328328  0.48588827  0.21865577    -0.28670
C164        C  0.00576386  0.49477025  0.19220401    -0.03910
C165        C  0.00310484  0.47201785  0.17481287     0.04700
C166        C  0.99885916  0.44946152  0.19215901     0.02790
H167        H  0.00846328  0.51631547  0.18605639     0.07900
H168        H  0.99562298  0.42800157  0.18601048     0.06730
N169        N  0.99922724  0.26736412  0.55652227    -0.27660
N170        N  0.99485496  0.28992214  0.54139071    -0.35510
C171        C  0.99532521  0.31237823  0.55789061     0.00680
C172        C  0.00080451  0.30379411  0.58478674     0.06710
C173        C  0.00268798  0.27499291  0.58333605    -0.06390
H174        H  0.99267544  0.33354170  0.55063108     0.07380
H175        H  0.00722786  0.26082252  0.60024112     0.08580
Cu176      Cu  0.99183341  0.29026332  0.49864057     0.44170
Cu177      Cu  0.00140672  0.22814646  0.53833972     0.41990
Cu178      Cu  0.99448565  0.22704534  0.46083938     0.43880
N179        N  0.99425775  0.28896174  0.45587359    -0.35040
N180        N  0.99481060  0.26564859  0.44133126    -0.29300
C181        C  0.99713706  0.27205314  0.41408727    -0.05400
C182        C  0.99861811  0.30079350  0.41173809     0.06820
C183        C  0.99657373  0.31077511  0.43856444     0.00620
H184        H  0.99845008  0.25699387  0.39742376     0.08270
H185        H  0.99695956  0.33234993  0.44505645     0.07350
N186        N  0.99681550  0.19216264  0.48636221    -0.36490
N187        N  0.00010217  0.19249657  0.51375682    -0.28670
C188        C  0.00140924  0.16607833  0.52307335    -0.03910
C189        C  0.99849130  0.14847295  0.50057616     0.04700
C190        C  0.99567415  0.16556239  0.47767274     0.02790
H191        H  0.00385763  0.16015144  0.54465381     0.07900
H192        H  0.99311394  0.15916416  0.45625027     0.06730
N193        N  0.44173741  0.97631857  0.70727582    -0.27660
N194        N  0.45612356  0.98087171  0.68430461    -0.35510
C195        C  0.43858029  0.98233479  0.66259686     0.00680
C196        C  0.41181648  0.97836013  0.67234052     0.06710
C197        C  0.41445352  0.97437572  0.70075823    -0.06390
H198        H  0.44488262  0.98548262  0.64121979     0.07380
H199        H  0.39787791  0.97057041  0.71552829     0.08580
Cu200      Cu  0.49905020  0.98260477  0.68344173     0.44170
Cu201      Cu  0.46142262  0.97361134  0.74561790     0.41990
Cu202      Cu  0.53853170  0.96497062  0.74462917     0.43880
N203        N  0.54174623  0.97797648  0.68381967    -0.35040
N204        N  0.55668134  0.97072444  0.70575706    -0.29300
C205        C  0.58351669  0.96779784  0.69789356    -0.05400
C206        C  0.58527671  0.97356505  0.66962946     0.06820
C207        C  0.55838984  0.97981179  0.66155485     0.00620
H208        H  0.60018525  0.96110369  0.71145268     0.08270
H209        H  0.55126000  0.98457355  0.64074076     0.07350
N210        N  0.51417716  0.96776844  0.78028871    -0.36490
N211        N  0.48703243  0.97244513  0.78044395    -0.28670
C212        C  0.47865167  0.97606411  0.80682383    -0.03910
C213        C  0.50146568  0.97344304  0.82438196     0.04700
C214        C  0.52354095  0.96764115  0.80667821     0.02790
H215        H  0.45737834  0.98048383  0.81267192     0.07900
H216        H  0.54489245  0.96339460  0.81230470     0.06730
N217        N  0.70539661  0.97759130  0.55635121    -0.27660
N218        N  0.68308821  0.98253863  0.54102263    -0.35510
C219        C  0.66035889  0.98146118  0.55713102     0.00680
C220        C  0.66844623  0.97479661  0.58392215     0.06710
C221        C  0.69728859  0.97302738  0.58286618    -0.06390
H222        H  0.63933613  0.98431572  0.54956998     0.07380
H223        H  0.71115673  0.96762836  0.59976588     0.08580
Cu224      Cu  0.68302863  0.98552646  0.49824296     0.44170
Cu225      Cu  0.74490561  0.97517473  0.53874649     0.41990
Cu226      Cu  0.74429877  0.96581552  0.46211932     0.43880
N227        N  0.68387773  0.97915071  0.45584431    -0.35040
N228        N  0.70637122  0.97125583  0.44219946    -0.29300
C229        C  0.69981037  0.96781405  0.41514677    -0.05400
C230        C  0.67176237  0.97358975  0.41197186     0.06820
C231        C  0.66235100  0.98075785  0.43807393     0.00620
H232        H  0.71420600  0.96127915  0.39916592     0.08270
H233        H  0.64131096  0.98630964  0.44381406     0.07350
N234        N  0.77984550  0.96801567  0.48661472    -0.36490
N235        N  0.78022108  0.97258265  0.51375364    -0.28670
C236        C  0.80686688  0.97520347  0.52210985    -0.03910
C237        C  0.82415641  0.97227671  0.49918588     0.04700
C238        C  0.80616697  0.96720967  0.47717086     0.02790
H239        H  0.81316883  0.97924094  0.54334295     0.07900
H240        H  0.81157006  0.96293585  0.45579666     0.06730
N241        N  0.44230434  0.97403209  0.29348721    -0.27660
N242        N  0.45668553  0.97237560  0.31690948    -0.35510
C243        C  0.43896887  0.97123698  0.33846742     0.00680
C244        C  0.41216850  0.97237668  0.32815971     0.06710
C245        C  0.41488812  0.97432204  0.29957763    -0.06390
H246        H  0.44515000  0.96996563  0.36007771     0.07380
H247        H  0.39828478  0.97553103  0.28439777     0.08580
Cu248      Cu  0.49969529  0.97255162  0.31896434     0.44170
Cu249      Cu  0.46136593  0.97474946  0.25473982     0.41990
Cu250      Cu  0.53815297  0.97449657  0.25513897     0.43880
N251        N  0.54269633  0.97418211  0.31733260    -0.35040
N252        N  0.55711021  0.97487855  0.29392802    -0.29300
C253        C  0.58450842  0.97541601  0.30008301    -0.05400
C254        C  0.58722951  0.97540031  0.32874299     0.06820
C255        C  0.56039605  0.97433740  0.33898554     0.00620
H256        H  0.60111486  0.97546411  0.28489384     0.08270
H257        H  0.55419811  0.97346122  0.36059639     0.07350
N258        N  0.51370933  0.97309870  0.21953238    -0.36490
N259        N  0.48612481  0.97299130  0.21937336    -0.28670
C260        C  0.47715073  0.97151537  0.19289749    -0.03910
C261        C  0.50014985  0.97047290  0.17558965     0.04700
C262        C  0.52294839  0.97184112  0.19316851     0.02790
H263        H  0.45546964  0.97162305  0.18672075     0.07900
H264        H  0.54468994  0.97177452  0.18724430     0.06730
N265        N  0.29470300  0.97825223  0.44277602    -0.27660
N266        N  0.31820210  0.97619079  0.45700059    -0.35510
C267        C  0.33970640  0.97558149  0.43916921     0.00680
C268        C  0.32928031  0.97757645  0.41247111     0.06710
C269        C  0.30064513  0.97893172  0.41539367    -0.06390
H270        H  0.36132374  0.97345970  0.44517593     0.07380
H271        H  0.28530288  0.97986880  0.39892080     0.08580
Cu272      Cu  0.32016595  0.97337285  0.49991215     0.44170
Cu273      Cu  0.25595603  0.97874627  0.46178849     0.41990
Cu274      Cu  0.25580547  0.96990602  0.53781339     0.43880
N275        N  0.31813265  0.97101703  0.54284328    -0.35040
N276        N  0.29457479  0.96989050  0.55703796    -0.29300
C277        C  0.30053116  0.96954964  0.58444842    -0.05400
C278        C  0.32922013  0.97010944  0.58742298     0.06820
C279        C  0.33966829  0.97134091  0.56070913     0.00620
H280        H  0.28518132  0.96946154  0.60090765     0.08270
H281        H  0.36133784  0.97294577  0.55471262     0.07350
N282        N  0.22026671  0.97125469  0.51314696    -0.36490
N283        N  0.22031252  0.97523924  0.48591378    -0.28670
C284        C  0.19385214  0.97567752  0.47670296    -0.03910
C285        C  0.17621122  0.97115521  0.49908658     0.04700
C286        C  0.19377051  0.96876922  0.52187814     0.02790
H287        H  0.18802282  0.97943400  0.45530686     0.07900
H288        H  0.18775401  0.96544296  0.54330861     0.06730
O289        O  0.99945916  0.93236486  0.52471578    -0.73310
O290        O  0.00128997  0.01608984  0.52323494    -0.74290
O291        O  0.95858885  0.97482622  0.52405582    -0.62910
O292        O  0.04199009  0.97347643  0.52420768    -0.71320
O293        O  0.04210084  0.97411164  0.47814867    -0.70870
O294        O  0.95837805  0.97289227  0.47803171    -0.62130
O295        O  0.99989078  0.01529762  0.47702212    -0.74630
O296        O  0.00050398  0.93180800  0.47875437    -0.73410
Cu297      Cu  0.00032075  0.97424175  0.52564832     1.04560
Cu298      Cu  0.00022192  0.97351324  0.47637539     1.04330
C299        C  0.99985807  0.91872173  0.50193560     0.92890
C300        C  0.00077313  0.02879229  0.49986449     0.92030
C301        C  0.94519190  0.97341607  0.50113068     0.84170
C302        C  0.05534034  0.97403141  0.50127011     0.90440
O303        O  0.47662903  0.93094082  0.00053287    -0.73310
O304        O  0.47652372  0.01461982  0.00056637    -0.74290
O305        O  0.47593452  0.97316279  0.95911803    -0.62910
O306        O  0.47699777  0.97254136  0.04245127    -0.71320
O307        O  0.52325446  0.97362814  0.04213828    -0.70870
O308        O  0.52199365  0.97267875  0.95855434    -0.62130
O309        O  0.52279526  0.01490168  0.99996192    -0.74630
O310        O  0.52286015  0.93122015  0.00101183    -0.73410
Cu311      Cu  0.47492611  0.97279448  0.00073131     1.04560
Cu312      Cu  0.52434901  0.97310058  0.00039714     1.04330
C313        C  0.49976748  0.91785186  0.00068923     0.92890
C314        C  0.49964415  0.02792495  0.99985309     0.92030
C315        C  0.49872412  0.97291184  0.94550014     0.84170
C316        C  0.50022762  0.97326522  0.05545847     0.90440
O317        O  0.00013126  0.49644752  0.04175510    -0.73310
O318        O  0.00079858  0.49469813  0.95821434    -0.74290
O319        O  0.95835658  0.49694248  0.99980257    -0.62910
O320        O  0.04181438  0.49463579  0.00037526    -0.71320
O321        O  0.04049203  0.44843509  0.00260575    -0.70870
O322        O  0.95673493  0.45066522  0.99905285    -0.62130
O323        O  0.99990739  0.44841946  0.95915953    -0.74630
O324        O  0.99688893  0.45023291  0.04250323    -0.73410
Cu325      Cu  0.00027559  0.49729592  0.99998074     1.04560
Cu326      Cu  0.99845750  0.44780368  0.00086924     1.04330
C327        C  0.99835363  0.47353920  0.05521502     0.92890
C328        C  0.00081405  0.47128307  0.94556180     0.92030
C329        C  0.94441801  0.47421345  0.99913509     0.84170
C330        C  0.05433577  0.47127652  0.00194425     0.90440
C331        C  0.14526972  0.97090575  0.49936902    -0.06490
C332        C  0.13164217  0.98236616  0.52247691    -0.17620
C333        C  0.10258204  0.98408253  0.52371960     0.10710
C334        C  0.08627945  0.97400198  0.50122211    -0.06410
C335        C  0.09994808  0.96242695  0.47815380    -0.17650
C336        C  0.12899166  0.96018174  0.47723339     0.10740
S337        S  0.08819545  0.99997816  0.55448211    -0.32620
S338        S  0.14348210  0.94142868  0.44822796    -0.32620
H339        H  0.16405567  0.92790759  0.46409540     0.28750
H340        H  0.06752135  0.01503854  0.54042014     0.28740
H341        H  0.14376090  0.99076483  0.53957550     0.19340
H342        H  0.08784750  0.95393932  0.46107350     0.19340
C343        C  0.38658458  0.97224329  0.34494151    -0.06490
C344        C  0.37376262  0.99776738  0.35071286    -0.17620
C345        C  0.35332645  0.99979967  0.37138427     0.10710
C346        C  0.34574872  0.97582950  0.38673832    -0.06410
C347        C  0.35757039  0.95007212  0.37993249    -0.17650
C348        C  0.37768681  0.94798901  0.35902944     0.10740
S349        S  0.34002264  0.03394898  0.37922778    -0.32620
S350        S  0.39234703  0.91412901  0.35229995    -0.32620
H351        H  0.39927581  0.91935105  0.32435044     0.28750
H352        H  0.31297223  0.02498184  0.38593790     0.28740
H353        H  0.38081834  0.01648153  0.34015563     0.19340
H354        H  0.35184798  0.93163955  0.39171351     0.19340
C355        C  0.50033920  0.97320537  0.08615996    -0.06490
C356        C  0.48242775  0.95469750  0.10009281    -0.17620
C357        C  0.48260164  0.95259628  0.12912872     0.10710
C358        C  0.50048333  0.97001936  0.14484020    -0.06410
C359        C  0.51851293  0.98841379  0.13088049    -0.17650
C360        C  0.51840536  0.99043362  0.10184191     0.10740
S361        S  0.46078303  0.92611278  0.14460786    -0.32620
S362        S  0.54050569  0.01657960  0.08620725    -0.32620
H363        H  0.52126728  0.02388358  0.06537414     0.28750
H364        H  0.47954641  0.91942072  0.16609209     0.28740
H365        H  0.46884054  0.94107277  0.08820732     0.19340
H366        H  0.53207949  0.00208408  0.14272918     0.19340
C367        C  0.65462559  0.97219120  0.38665202    -0.06490
C368        C  0.64929907  0.99703513  0.37226522    -0.17620
C369        C  0.62875291  0.99823178  0.35159514     0.10710
C370        C  0.61284940  0.97416567  0.34553560    -0.06410
C371        C  0.61891851  0.94909014  0.35921539    -0.17650
C372        C  0.63980205  0.94777707  0.37949007     0.10740
S373        S  0.62184614  0.03163841  0.33592460    -0.32620
S374        S  0.64487632  0.91499561  0.39711867    -0.32620
H375        H  0.67347854  0.91876726  0.40216852     0.28750
H376        H  0.61541397  0.02115751  0.30943443     0.28740
H377        H  0.66033734  0.01591444  0.37806711     0.19340
H378        H  0.60654797  0.93065124  0.35482551     0.19340
C379        C  0.85515143  0.97311348  0.49905093    -0.06490
C380        C  0.86930267  0.96314560  0.52261648    -0.17620
C381        C  0.89840586  0.96248888  0.52380699     0.10710
C382        C  0.91424439  0.97263876  0.50107776    -0.06410
C383        C  0.90012701  0.98285155  0.47758398    -0.17650
C384        C  0.87090906  0.98341971  0.47631477     0.10740
S385        S  0.91370841  0.94716043  0.55446753    -0.32620
S386        S  0.85456375  0.99952431  0.44647011    -0.32620
H387        H  0.87859624  0.00190106  0.42988543     0.28750
H388        H  0.93288777  0.93093799  0.53949118     0.28740
H389        H  0.85758935  0.95492229  0.54007157     0.19340
H390        H  0.91210642  0.99118580  0.46038699     0.19340
C391        C  0.60908509  0.97052480  0.65036306    -0.06490
C392        C  0.60397295  0.95655739  0.62526807    -0.17620
C393        C  0.62394977  0.95551185  0.60430728     0.10710
C394        C  0.64959065  0.96971921  0.60778864    -0.06410
C395        C  0.65573455  0.98177662  0.63372671    -0.17650
C396        C  0.63571993  0.98240712  0.65504835     0.10740
S397        S  0.61546417  0.93506181  0.57395641    -0.32620
S398        S  0.64479044  0.00038387  0.68669078    -0.32620
H399        H  0.61877732  0.01332995  0.68993948     0.28750
H400        H  0.64305080  0.92680886  0.56867318     0.28740
H401        H  0.58404374  0.94637856  0.62186647     0.19340
H402        H  0.67551451  0.99232437  0.63678886     0.19340
C403        C  0.38642705  0.97768432  0.65513218    -0.06490
C404        C  0.37340846  0.95194547  0.65013341    -0.17620
C405        C  0.35308232  0.94916656  0.62932558     0.10710
C406        C  0.34574230  0.97261083  0.61313598    -0.06410
C407        C  0.35773286  0.99859240  0.61918241    -0.17650
C408        C  0.37775929  0.00141587  0.64014712     0.10740
S409        S  0.33951517  0.91474341  0.62255074    -0.32620
S410        S  0.39237519  0.03559755  0.64604893    -0.32620
H411        H  0.39882439  0.03130253  0.67428200     0.28750
H412        H  0.31292141  0.92341124  0.61410041     0.28740
H413        H  0.38023248  0.93362023  0.66139874     0.19340
H414        H  0.35215769  0.01663069  0.60680672     0.19340
C415        C  0.50117910  0.97488136  0.85536608    -0.06490
C416        C  0.47623272  0.96823903  0.86919255    -0.17620
C417        C  0.47444240  0.96779540  0.89820876     0.10710
C418        C  0.49853268  0.97332716  0.91449160    -0.06410
C419        C  0.52336245  0.98053246  0.90064371    -0.17650
C420        C  0.52473453  0.98226727  0.87159957     0.10740
S421        S  0.44052575  0.96014833  0.91245179    -0.32620
S422        S  0.55643897  0.99642599  0.85720321    -0.32620
H423        H  0.54279759  0.01241523  0.83679158     0.28750
H424        H  0.45022828  0.93886133  0.92981618     0.28740
H425        H  0.45779773  0.96279456  0.85736215     0.19340
H426        H  0.54176156  0.98602094  0.91256231     0.19340
C427        C  0.99853118  0.11788332  0.50085103    -0.06490
C428        C  0.02418544  0.10418280  0.50260619    -0.17620
C429        C  0.02563846  0.07510725  0.50136912     0.10710
C430        C  0.00080454  0.05935593  0.49925486    -0.06410
C431        C  0.97515326  0.07306767  0.49734665    -0.17650
C432        C  0.97374248  0.10217220  0.49812118     0.10740
S433        S  0.05976577  0.05956818  0.50202933    -0.32620
S434        S  0.93978058  0.11794996  0.49560761    -0.32620
H435        H  0.94599065  0.14155716  0.51177037     0.28750
H436        H  0.05281610  0.03574282  0.48651783     0.28740
H437        H  0.04325704  0.11626883  0.50425675     0.19340
H438        H  0.95607983  0.06099528  0.49559844     0.19340
C439        C  0.00161510  0.31806147  0.38653549    -0.06490
C440        C  0.98029556  0.31759982  0.36653036    -0.17620
C441        C  0.97841270  0.33859724  0.34627430     0.10710
C442        C  0.99862715  0.36010398  0.34570375    -0.06410
C443        C  0.02100258  0.35927902  0.36446263    -0.17650
C444        C  0.02289334  0.33836197  0.38457505     0.10740
S445        S  0.94849605  0.33814588  0.32354981    -0.32620
S446        S  0.05267293  0.33898674  0.40752805    -0.32620
H447        H  0.05289995  0.31012497  0.41269805     0.28750
H448        H  0.94439694  0.36713574  0.32348638     0.28740
H449        H  0.96385810  0.30210660  0.36802824     0.19340
H450        H  0.03683812  0.37545468  0.36382030     0.19340
C451        C  0.00256914  0.47208349  0.14418770    -0.06490
C452        C  0.97847026  0.46243770  0.13068026    -0.17620
C453        C  0.97613696  0.46340468  0.10167763     0.10710
C454        C  0.99857489  0.47391261  0.08576225    -0.06410
C455        C  0.02266847  0.48355718  0.09925634    -0.17650
C456        C  0.02506650  0.48237578  0.12824292     0.10740
S457        S  0.94374769  0.45168302  0.08644765    -0.32620
S458        S  0.05781765  0.49290062  0.14348483    -0.32620
H459        H  0.05696642  0.47383452  0.16572658     0.28750
H460        H  0.94553427  0.46781715  0.06215355     0.28740
H461        H  0.96108543  0.45469502  0.14287090     0.19340
H462        H  0.04011681  0.49114649  0.08705367     0.19340
C463        C  0.00491559  0.62374231  0.38951687    -0.06490
C464        C  0.98914035  0.62862309  0.36533851    -0.17620
C465        C  0.98736212  0.60849476  0.34417814     0.10710
C466        C  0.00179575  0.58304138  0.34723541    -0.06410
C467        C  0.01930443  0.57936117  0.37029338    -0.17650
C468        C  0.02151825  0.59951560  0.39100584     0.10740
S469        S  0.96486790  0.61573772  0.31503224    -0.32620
S470        S  0.04644290  0.59310846  0.41840139    -0.32620
H471        H  0.05286463  0.62138829  0.42287408     0.28750
H472        H  0.95400304  0.58856503  0.31293963     0.28740
H473        H  0.97669192  0.64733419  0.36373379     0.19340
H474        H  0.03134467  0.56040300  0.37229587     0.19340
C475        C  0.99998353  0.82845520  0.49836830    -0.06490
C476        C  0.99188552  0.84209607  0.52291281    -0.17620
C477        C  0.99217917  0.87116836  0.52510688     0.10710
C478        C  0.99990420  0.88764681  0.50186152    -0.06410
C479        C  0.00785155  0.87401211  0.47725412    -0.17650
C480        C  0.00842610  0.84484883  0.47529079     0.10740
S481        S  0.98195318  0.88558375  0.55809003    -0.32620
S482        S  0.02227074  0.82954131  0.44389355    -0.32620
H483        H  0.02258197  0.85389305  0.42756030     0.28750
H484        H  0.00853539  0.89709121  0.56309123     0.28740
H485        H  0.98524356  0.83002290  0.54078332     0.19340
H486        H  0.01448833  0.88632337  0.45956500     0.19340
C487        C  0.99629367  0.58515116  0.65410889    -0.06490
C488        C  0.97569658  0.58396474  0.63341939    -0.17620
C489        C  0.97368114  0.60444092  0.61294711     0.10710
C490        C  0.99328280  0.62650191  0.61231680    -0.06410
C491        C  0.01244821  0.62912503  0.63429996    -0.17650
C492        C  0.01426819  0.60859841  0.65513355     0.10740
S493        S  0.94541004  0.60115758  0.58834638    -0.32620
S494        S  0.04132847  0.61244310  0.68087111    -0.32620
H495        H  0.04918741  0.58425542  0.68067720     0.28750
H496        H  0.94234488  0.62997872  0.58397555     0.28740
H497        H  0.96112573  0.56663596  0.63298208     0.19340
H498        H  0.02738208  0.64613358  0.63416513     0.19340
C499        C  0.00225005  0.36279363  0.65160902    -0.06490
C500        C  0.01863456  0.36713039  0.62781486    -0.17620
C501        C  0.02032815  0.34721443  0.60685265     0.10710
C502        C  0.00477401  0.32226045  0.60909868    -0.06410
C503        C  0.99022608  0.31671182  0.63385963    -0.17650
C504        C  0.98861991  0.33678258  0.65507436     0.10740
S505        S  0.04301579  0.35497625  0.57791030    -0.32620
S506        S  0.96710359  0.32871750  0.68471012    -0.32620
H507        H  0.95447349  0.35507406  0.68580934     0.28750
H508        H  0.05032107  0.32709397  0.57279193     0.28740
H509        H  0.03013908  0.38646328  0.62533388     0.19340
H510        H  0.97848043  0.29747445  0.63588571     0.19340
C511        C  0.99835615  0.47177232  0.85631570    -0.06490
C512        C  0.01908824  0.48692037  0.87039452    -0.17620
C513        C  0.02102795  0.48623719  0.89943074     0.10620
C514        C  0.00142963  0.47064277  0.91492047    -0.06410
C515        C  0.98101808  0.45511148  0.90085171    -0.17650
C516        C  0.97888837  0.45596138  0.87183561     0.10740
S517        S  0.04993836  0.50417910  0.91544823    -0.32620
S518        S  0.94982416  0.43793361  0.85612376    -0.32620
H519        H  0.94562384  0.45760202  0.83480960     0.28750
H520        H  0.05374322  0.48416888  0.93650339     0.28740
H521        H  0.03442677  0.49867826  0.85863681     0.19340
H522        H  0.96596679  0.44302560  0.91259535     0.19340
C523        C  0.08510179  0.47098352  0.00215080    -0.06490
C524        C  0.09916121  0.48859380  0.98349661    -0.17620
C525        C  0.12817564  0.48826762  0.98124823     0.10710
C526        C  0.14392191  0.47088551  0.99902214    -0.06410
C527        C  0.12987863  0.45332021  0.01782865    -0.17650
C528        C  0.10073391  0.45336505  0.01976709     0.10740
S529        S  0.14346966  0.50908599  0.95393573    -0.32620
S530        S  0.08493007  0.43182449  0.04623464    -0.32620
H531        H  0.06358305  0.45070394  0.05279201     0.28750
H532        H  0.16428858  0.48967570  0.94724480     0.28740
H533        H  0.08738846  0.50210380  0.96982598     0.19340
H534        H  0.14172857  0.44012638  0.03176910     0.19340
C535        C  0.38675357  0.31833581  0.00212273    -0.06490
C536        C  0.37341027  0.32443997  0.97688216    -0.17620
C537        C  0.35280564  0.34499661  0.97540415     0.10710
C538        C  0.34545622  0.35976749  0.99968621    -0.06410
C539        C  0.35782214  0.35264314  0.02513142    -0.17650
C540        C  0.37818949  0.33195373  0.02664199     0.10740
S541        S  0.33868514  0.35320563  0.94160263    -0.32620
S542        S  0.39332262  0.32464969  0.06022549    -0.32620
H543        H  0.40009835  0.29675523  0.05454111     0.28750
H544        H  0.31237262  0.36159446  0.95107955     0.28740
H545        H  0.38014052  0.31422085  0.95796834     0.19340
H546        H  0.35227292  0.36398209  0.04379437     0.19340
C547        C  0.49894339  0.11744167  0.00074680    -0.06490
C548        C  0.48192768  0.10282800  0.98193912    -0.17620
C549        C  0.48233545  0.07370344  0.98066028     0.10710
C550        C  0.49964660  0.05863306  0.99903996    -0.06410
C551        C  0.51673225  0.07319933  0.01777456    -0.17650
C552        C  0.51618771  0.10231079  0.01920968     0.10740
S553        S  0.46155628  0.05710850  0.95406780    -0.32620
S554        S  0.53660290  0.11862649  0.04622666    -0.32620
H555        H  0.51733103  0.13993893  0.05163636     0.28750
H556        H  0.48072725  0.03574677  0.94848204     0.28740
H557        H  0.46891872  0.11422082  0.96744798     0.19340
H558        H  0.52991001  0.06178700  0.03207390     0.19340
C559        C  0.65444884  0.35943884  0.99910708    -0.06490
C560        C  0.64120202  0.35394870  0.02451343    -0.17620
C561        C  0.62059849  0.33338100  0.02665076     0.10710
C562        C  0.61266166  0.31822310  0.00277483    -0.06410
C563        C  0.62692579  0.32261992  0.97769386    -0.17650
C564        C  0.64776607  0.34307734  0.97559768     0.10740
S565        S  0.60439099  0.32819252  0.06011204    -0.32620
S566        S  0.66277130  0.34929511  0.94177182    -0.32620
H567        H  0.68912593  0.35758389  0.95146282     0.28750
H568        H  0.59756914  0.29996466  0.05597283     0.28740
H569        H  0.64623888  0.36649536  0.04258641     0.19340
H570        H  0.62067731  0.31120229  0.95925429     0.19340
C571        C  0.91376957  0.47509010  0.99896817    -0.06490
C572        C  0.90007299  0.48717752  0.02166421    -0.17620
C573        C  0.87101534  0.48605510  0.02393114     0.10710
C574        C  0.85517604  0.47343257  0.00256817    -0.06410
C575        C  0.86887263  0.46165096  0.97970589    -0.17650
C576        C  0.89792848  0.46264643  0.97754153     0.10740
S577        S  0.85555953  0.49968381  0.05523277    -0.32620
S578        S  0.91353092  0.44900546  0.94636773    -0.32620
H579        H  0.93524227  0.46877928  0.94540757     0.28750
H580        H  0.83347033  0.48034039  0.05632134     0.28740
H581        H  0.91212293  0.49670878  0.03820935     0.19340
H582        H  0.85679751  0.45233302  0.96303826     0.19340
C583        C  0.61247409  0.62674506  0.00414682    -0.06490
C584        C  0.63198379  0.62665932  0.98240173    -0.17620
C585        C  0.65221578  0.60568859  0.98062857     0.10710
C586        C  0.65317278  0.58472678  0.00130447    -0.06410
C587        C  0.63497621  0.58616012  0.02401903    -0.17650
C588        C  0.61501267  0.60710048  0.02587720     0.10740
S589        S  0.67454415  0.60559829  0.95048348    -0.32620
S590        S  0.59315783  0.60745810  0.05638722    -0.32620
H591        H  0.58862188  0.63640182  0.05619262     0.28750
H592        H  0.67543694  0.57648788  0.94746405     0.28740
H593        H  0.63016416  0.64172410  0.96568538     0.19340
H594        H  0.63599996  0.57047314  0.04023887     0.19340
C595        C  0.34492265  0.58571386  0.00348047    -0.06490
C596        C  0.34673129  0.60357388  0.98039374    -0.17620
C597        C  0.36795931  0.62372905  0.97858415     0.10710
C598        C  0.38739338  0.62634277  0.00056865    -0.06410
C599        C  0.38421558  0.60980709  0.02442249    -0.17650
C600        C  0.36304105  0.58985157  0.02625287     0.10740
S601        S  0.37048319  0.64367702  0.94685366    -0.32620
S602        S  0.36056909  0.56982145  0.05795253    -0.32620
H603        H  0.33176126  0.56459507  0.05596645     0.28750
H604        H  0.39975348  0.64428697  0.94578734     0.28740
H605        H  0.33290552  0.60041230  0.96282123     0.19340
H606        H  0.39878223  0.61203627  0.04154281     0.19340
C607        C  0.50031953  0.82813540  0.00385831    -0.06490
C608        C  0.48092056  0.84204487  0.98703879    -0.17620
C609        C  0.48075569  0.87109231  0.98511014     0.10710
C610        C  0.49991280  0.88701373  0.00086745    -0.06410
C611        C  0.51924129  0.87315457  0.01784833    -0.17650
C612        C  0.51940944  0.84402263  0.01983180     0.10740
S613        S  0.45717505  0.88645192  0.96042987    -0.32620
S614        S  0.54332857  0.82868979  0.04435464    -0.32620
H615        H  0.52521449  0.80705442  0.05253616     0.28750
H616        H  0.47754564  0.90493453  0.95010838     0.28740
H617        H  0.46647542  0.83015763  0.97434205     0.19340
H618        H  0.53376233  0.88514528  0.03036624     0.19340
loop_ 
_geom_bond_atom_site_label_1 
_geom_bond_atom_site_label_2 
_geom_bond_distance 
_geom_bond_site_symmetry_2 
_ccdc_geom_bond_type 
N1            N2   1.321       .  A
N1            C5   1.349       .  A
N1           Cu9   2.078       .  S
N2            C3   1.341   1_556  A
N2           Cu8   2.063   1_556  S
C3            C4   1.380   1_554  A
C3            H6   1.082       .  S
C4            C5   1.386       .  A
C4          C598   1.474   1_556  S
C5            H7   1.081       .  S
Cu8          N11   2.063       .  S
Cu9          N19   2.080       .  S
Cu10         N12   2.077       .  S
Cu10         N18   2.079       .  S
N11          N12   1.321   1_554  A
N11          C15   1.340       .  A
N12          C13   1.349       .  A
C13          C14   1.385   1_556  A
C13          H16   1.082       .  S
C14          C15   1.380       .  A
C14         C583   1.475       .  S
C15          H17   1.082       .  S
N18          N19   1.324       .  A
N18          C22   1.345   1_556  A
N19          C20   1.344   1_556  A
C20          C21   1.384       .  A
C20          H23   1.082       .  S
C21          C22   1.384       .  A
C21         C607   1.481       .  S
C22          H24   1.081       .  S
N25          N26   1.322       .  A
N25          C29   1.349       .  A
N25         Cu33   2.078   1_556  S
N26          C27   1.340       .  A
N26         Cu32   2.063       .  S
C27          C28   1.379       .  A
C27          H30   1.082       .  S
C28          C29   1.386       .  A
C28         C586   1.473   1_556  S
C29          H31   1.082       .  S
Cu32         N35   2.063       .  S
Cu33         N43   2.080       .  S
Cu34         N36   2.075       .  S
Cu34         N42   2.077   1_556  S
N35          N36   1.321       .  A
N35          C39   1.342       .  A
N36          C37   1.348       .  A
C37          C38   1.384       .  A
C37          H40   1.081       .  S
C38          C39   1.379       .  A
C38         C559   1.471       .  S
C39          H41   1.082       .  S
N42          N43   1.325       .  A
N42          C46   1.345       .  A
N43          C44   1.345       .  A
C44          C45   1.382       .  A
C44          H47   1.082       .  S
C45          C46   1.381       .  A
C45         C574   1.473       .  S
C46          H48   1.082   1_554  S
N49          N50   1.322   1_556  A
N49          C53   1.348       .  A
N49         Cu57   2.079       .  S
N50          C51   1.342       .  A
N50         Cu56   2.066       .  S
C51          C52   1.379       .  A
C51          H54   1.082       .  S
C52          C53   1.384   1_554  A
C52         C535   1.472       .  S
C53          H55   1.082       .  S
Cu56         N59   2.066       .  S
Cu57         N67   2.080       .  S
Cu58         N60   2.074       .  S
Cu58         N66   2.075       .  S
N59          N60   1.322   1_554  A
N59          C63   1.342       .  A
N60          C61   1.348       .  A
C61          C62   1.383   1_556  A
C61          H64   1.082       .  S
C62          C63   1.380       .  A
C62         C562   1.471       .  S
C63          H65   1.082       .  S
N66          N67   1.324       .  A
N66          C70   1.344       .  A
N67          C68   1.346       .  A
C68          C69   1.384       .  A
C68          H71   1.082       .  S
C69          C70   1.383       .  A
C69         C547   1.479   1_556  S
C70          H72   1.082       .  S
N73          N74   1.322   1_556  A
N73          C77   1.350       .  A
N73         Cu81   2.078       .  S
N74          C75   1.341       .  A
N74         Cu80   2.066       .  S
C75          C76   1.380       .  A
C75          H78   1.082       .  S
C76          C77   1.385   1_554  A
C76         C595   1.474       .  S
C77          H79   1.081       .  S
Cu80         N83   2.066   1_554  S
Cu81         N91   2.080       .  S
Cu82         N84   2.076       .  S
Cu82         N90   2.077       .  S
N83          N84   1.322   1_556  A
N83          C87   1.343       .  A
N84          C85   1.348   1_554  A
C85          C86   1.384       .  A
C85          H88   1.082   1_556  S
C86          C87   1.379       .  A
C86         C538   1.471       .  S
C87          H89   1.082       .  S
N90          N91   1.324   1_554  A
N90          C94   1.345       .  A
N91          C92   1.344       .  A
C92          C93   1.384       .  A
C92          H95   1.082       .  S
C93          C94   1.383   1_556  A
C93         C526   1.480       .  S
C94          H96   1.082       .  S
N97          N98   1.320   1_455  A
N97         C101   1.351       .  A
N97        Cu105   2.081       .  S
N98          C99   1.338       .  A
N98        Cu104   2.055       .  S
C99         C100   1.381       .  A
C99         H102   1.081       .  S
C100        C101   1.390   1_655  A
C100        C487   1.481       .  S
C101        H103   1.081       .  S
Cu104       N107   2.055       .  S
Cu105       N115   2.084       .  S
Cu106       N108   2.079       .  S
Cu106       N114   2.082       .  S
N107        N108   1.319       .  A
N107        C111   1.338       .  A
N108        C109   1.351       .  A
C109        C110   1.391       .  A
C109        H112   1.081   1_655  S
C110        C111   1.382       .  A
C110        C499   1.483   1_655  S
C111        H113   1.081       .  S
N114        N115   1.326   1_655  A
N114        C118   1.345       .  A
N115        C116   1.345       .  A
C116        C117   1.382   1_455  A
C116        H119   1.082       .  S
C117        C118   1.382       .  A
C117        C511   1.476       .  S
C118        H120   1.082       .  S
N121        N122   1.320   1_455  A
N121        C125   1.351       .  A
N121       Cu129   2.084       .  S
N122        C123   1.338       .  A
N122       Cu128   2.054       .  S
C123        C124   1.381       .  A
C123        H126   1.082       .  S
C124        C125   1.389   1_655  A
C124        C490   1.480       .  S
C125        H127   1.082       .  S
Cu128       N131   2.053       .  S
Cu129       N139   2.086       .  S
Cu130       N132   2.080       .  S
Cu130       N138   2.083       .  S
N131        N132   1.319       .  A
N131        C135   1.338       .  A
N132        C133   1.351       .  A
C133        C134   1.390   1_655  A
C133        H136   1.081   1_655  S
C134        C135   1.382   1_455  A
C134        C463   1.482       .  S
C135        H137   1.081       .  S
N138        N139   1.324   1_655  A
N138        C142   1.344       .  A
N139        C140   1.345       .  A
C140        C141   1.388   1_455  A
C140        H143   1.082       .  S
C141        C142   1.388       .  A
C141        C475   1.492       .  S
C142        H144   1.079       .  S
N145        N146   1.320       .  A
N145        C149   1.351   1_655  A
N145       Cu153   2.081   1_655  S
N146        C147   1.338       .  A
N146       Cu152   2.057       .  S
C147        C148   1.380       .  A
C147        H150   1.082       .  S
C148        C149   1.389   1_655  A
C148        C466   1.479   1_655  S
C149        H151   1.081       .  S
Cu152       N155   2.058       .  S
Cu153       N163   2.083       .  S
Cu154       N156   2.076       .  S
Cu154       N162   2.078       .  S
N155        N156   1.320       .  A
N155        C159   1.340       .  A
N156        C157   1.349       .  A
C157        C158   1.386       .  A
C157        H160   1.081       .  S
C158        C159   1.379       .  A
C158        C442   1.474       .  S
C159        H161   1.082       .  S
N162        N163   1.326   1_655  A
N162        C166   1.344       .  A
N163        C164   1.345       .  A
C164        C165   1.381       .  A
C164        H167   1.082       .  S
C165        C166   1.380   1_455  A
C165        C451   1.472       .  S
C166        H168   1.082       .  S
N169        N170   1.321       .  A
N169        C173   1.350   1_655  A
N169       Cu177   2.079   1_655  S
N170        C171   1.339       .  A
N170       Cu176   2.060       .  S
C171        C172   1.381   1_655  A
C171        H174   1.081       .  S
C172        C173   1.387       .  A
C172        C502   1.479       .  S
C173        H175   1.081       .  S
Cu176       N179   2.060       .  S
Cu177       N187   2.081       .  S
Cu178       N180   2.075       .  S
Cu178       N186   2.077       .  S
N179        N180   1.320       .  A
N179        C183   1.340       .  A
N180        C181   1.349       .  A
C181        C182   1.385       .  A
C181        H184   1.082       .  S
C182        C183   1.380       .  A
C182        C439   1.473   1_655  S
C183        H185   1.082       .  S
N186        N187   1.326   1_655  A
N186        C190   1.345       .  A
N187        C188   1.346       .  A
C188        C189   1.380   1_455  A
C188        H191   1.081       .  S
C189        C190   1.378       .  A
C189        C427   1.468       .  S
C190        H192   1.082       .  S
N193        N194   1.320       .  A
N193        C197   1.348       .  A
N193       Cu201   2.074       .  S
N194        C195   1.342       .  A
N194       Cu200   2.061       .  S
C195        C196   1.380       .  A
C195        H198   1.082       .  S
C196        C197   1.385       .  A
C196        C403   1.472       .  S
C197        H199   1.081       .  S
Cu200       N203   2.062       .  S
Cu201       N211   2.076       .  S
Cu202       N204   2.080       .  S
Cu202       N210   2.080       .  S
N203        N204   1.321       .  A
N203        C207   1.339       .  A
N204        C205   1.350       .  A
C205        C206   1.388       .  A
C205        H208   1.081       .  S
C206        C207   1.381       .  A
C206        C391   1.479       .  S
C207        H209   1.081       .  S
N210        N211   1.323       .  A
N210        C214   1.345       .  A
N211        C212   1.342       .  A
C212        C213   1.387       .  A
C212        H215   1.081       .  S
C213        C214   1.389       .  A
C213        C415   1.491       .  S
C214        H216   1.079       .  S
N217        N218   1.321       .  A
N217        C221   1.350       .  A
N217       Cu225   2.081       .  S
N218        C219   1.339       .  A
N218       Cu224   2.061       .  S
C219        C220   1.382       .  A
C219        H222   1.081       .  S
C220        C221   1.388       .  A
C220        C394   1.481       .  S
C221        H223   1.081       .  S
Cu224       N227   2.062       .  S
Cu225       N235   2.083       .  S
Cu226       N228   2.073       .  S
Cu226       N234   2.074       .  S
N227        N228   1.321       .  A
N227        C231   1.342       .  A
N228        C229   1.348       .  A
C229        C230   1.383       .  A
C229        H232   1.081       .  S
C230        C231   1.379       .  A
C230        C367   1.469       .  S
C231        H233   1.082       .  S
N234        N235   1.323       .  A
N234        C238   1.343       .  A
N235        C236   1.345       .  A
C236        C237   1.388       .  A
C236        H239   1.081       .  S
C237        C238   1.386       .  A
C237        C379   1.488       .  S
C238        H240   1.080       .  S
N241        N242   1.322       .  A
N241        C245   1.348       .  A
N241       Cu249   2.076       .  S
N242        C243   1.342       .  A
N242       Cu248   2.066       .  S
C243        C244   1.379       .  A
C243        H246   1.081       .  S
C244        C245   1.383       .  A
C244        C343   1.470       .  S
C245        H247   1.081       .  S
Cu248       N251   2.066       .  S
Cu249       N259   2.077       .  S
Cu250       N252   2.073       .  S
Cu250       N258   2.074       .  S
N251        N252   1.322       .  A
N251        C255   1.342       .  A
N252        C253   1.347       .  A
C253        C254   1.383       .  A
C253        H256   1.081       .  S
C254        C255   1.380       .  A
C254        C370   1.471       .  S
C255        H257   1.081       .  S
N258        N259   1.324       .  A
N258        C262   1.344       .  A
N259        C260   1.345       .  A
C260        C261   1.384       .  A
C260        H263   1.081       .  S
C261        C262   1.383       .  A
C261        C358   1.478       .  S
C262        H264   1.082       .  S
N265        N266   1.322       .  A
N265        C269   1.347       .  A
N265       Cu273   2.073       .  S
N266        C267   1.343       .  A
N266       Cu272   2.069       .  S
C267        C268   1.380       .  A
C267        H270   1.082       .  S
C268        C269   1.383       .  A
C268        C346   1.471       .  S
C269        H271   1.081       .  S
Cu272       N275   2.069       .  S
Cu273       N283   2.074       .  S
Cu274       N276   2.076       .  S
Cu274       N282   2.077       .  S
N275        N276   1.322       .  A
N275        C279   1.343       .  A
N276        C277   1.348       .  A
C277        C278   1.384       .  A
C277        H280   1.082       .  S
C278        C279   1.380       .  A
C278        C406   1.472       .  S
C279        H281   1.082       .  S
N282        N283   1.322       .  A
N282        C286   1.344       .  A
N283        C284   1.344       .  A
C284        C285   1.386       .  A
C284        H287   1.080       .  S
C285        C286   1.386       .  A
C285        C331   1.485       .  S
C286        H288   1.081       .  S
O289       Cu297   2.010   1_655  S
O289        C299   1.277       .  A
O290       Cu297   2.012   1_545  S
O290        C300   1.277       .  A
O291       Cu297   2.004   1_655  S
O291        C301   1.277       .  A
O292       Cu297   2.001       .  S
O292        C302   1.276       .  A
O293       Cu298   2.011       .  S
O293        C302   1.279       .  A
O294       Cu298   2.009   1_655  S
O294        C301   1.279       .  A
O295       Cu298   2.006   1_645  S
O295        C300   1.276   1_655  A
O296       Cu298   2.004       .  S
O296        C299   1.278   1_455  A
Cu297      Cu298   2.368       .  S
C299        C478   1.491       .  S
C300        C430   1.467       .  S
C301        C382   1.485       .  S
C302        C334   1.484       .  S
O303       Cu311   2.010       .  S
O303        C313   1.278       .  A
O304       Cu311   2.008   1_545  S
O304        C314   1.278   1_554  A
O305       Cu311   2.001   1_556  S
O305        C315   1.275       .  A
O306       Cu311   2.007       .  S
O306        C316   1.278       .  A
O307       Cu312   2.007       .  S
O307        C316   1.278       .  A
O308       Cu312   2.014   1_556  S
O308        C315   1.280       .  A
O309       Cu312   2.008   1_546  S
O309        C314   1.277       .  A
O310       Cu312   2.011       .  S
O310        C313   1.278       .  A
Cu311      Cu312   2.371       .  S
C313        C610   1.480       .  S
C314        C550   1.474       .  S
C315        C418   1.490       .  S
C316        C355   1.476       .  S
O317       Cu325   2.008   1_554  S
O317        C327   1.277   1_455  A
O318       Cu325   2.012       .  S
O318        C328   1.278       .  A
O319       Cu325   2.011   1_655  S
O319        C329   1.277       .  A
O320       Cu325   1.998   1_554  S
O320        C330   1.276       .  A
O321       Cu326   2.019   1_455  S
O321        C330   1.279       .  A
O322       Cu326   2.009   1_556  S
O322        C329   1.278       .  A
O323       Cu326   2.006   1_556  S
O323        C328   1.277   1_655  A
O324       Cu326   2.006       .  S
O324        C327   1.277       .  A
Cu325      Cu326   2.376   1_456  S
C327        C454   1.468       .  S
C328        C514   1.473       .  S
C329        C571   1.471       .  S
C330        C523   1.476       .  S
C331        C332   1.404       .  A
C331        C336   1.415       .  A
C332        C333   1.399       .  A
C332        H341   1.083       .  S
C333        C334   1.418       .  A
C333        S337   1.804       .  S
C334        C335   1.405       .  A
C335        C336   1.399       .  A
C335        H342   1.084       .  S
C336        S338   1.803       .  S
S337        H340   1.402   1_565  S
S338        H339   1.407       .  S
C343        C344   1.402       .  A
C343        C348   1.410       .  A
C344        C345   1.401       .  A
C344        H353   1.084   1_565  S
C345        C346   1.412       .  A
C345        S349   1.802   1_565  S
C346        C347   1.402       .  A
C347        C348   1.398       .  A
C347        H354   1.084       .  S
C348        S350   1.803       .  S
S349        H352   1.403       .  S
S350        H351   1.406       .  S
C355        C356   1.403       .  A
C355        C360   1.413       .  A
C356        C357   1.399       .  A
C356        H365   1.084       .  S
C357        C358   1.414       .  A
C357        S361   1.803       .  S
C358        C359   1.404       .  A
C359        C360   1.399       .  A
C359        H366   1.084   1_565  S
C360        S362   1.803   1_565  S
S361        H364   1.407       .  S
S362        H363   1.406       .  S
C367        C368   1.402       .  A
C367        C372   1.411       .  A
C368        C369   1.400       .  A
C368        H377   1.084   1_565  S
C369        C370   1.412       .  A
C369        S373   1.802   1_565  S
C370        C371   1.402       .  A
C371        C372   1.398       .  A
C371        H378   1.084       .  S
C372        S374   1.803       .  S
S373        H376   1.403       .  S
S374        H375   1.404       .  S
C379        C380   1.404       .  A
C379        C384   1.417       .  A
C380        C381   1.398       .  A
C380        H389   1.083       .  S
C381        C382   1.416       .  A
C381        S385   1.803       .  S
C382        C383   1.405       .  A
C383        C384   1.404       .  A
C383        H390   1.082       .  S
C384        S386   1.808       .  S
S385        H388   1.408       .  S
S386        H387   1.407   1_565  S
C391        C392   1.402       .  A
C391        C396   1.415       .  A
C392        C393   1.393       .  A
C392        H401   1.084       .  S
C393        C394   1.414       .  A
C393        S397   1.804       .  S
C394        C395   1.405       .  A
C395        C396   1.406       .  A
C395        H402   1.083       .  S
C396        S398   1.801   1_565  S
S397        H400   1.407       .  S
S398        H399   1.406       .  S
C403        C404   1.402       .  A
C403        C408   1.411   1_565  A
C404        C405   1.402       .  A
C404        H413   1.084       .  S
C405        C406   1.413       .  A
C405        S409   1.803       .  S
C406        C407   1.401       .  A
C407        C408   1.398   1_565  A
C407        H414   1.084   1_565  S
C408        S410   1.804       .  S
S409        H412   1.403       .  S
S410        H411   1.406       .  S
C415        C416   1.405       .  A
C415        C420   1.416       .  A
C416        C417   1.397       .  A
C416        H425   1.082       .  S
C417        C418   1.419       .  A
C417        S421   1.802       .  S
C418        C419   1.407       .  A
C419        C420   1.400       .  A
C419        H426   1.083       .  S
C420        S422   1.802       .  S
S421        H424   1.399       .  S
S422        H423   1.407   1_565  S
C427        C428   1.401   1_655  A
C427        C432   1.411       .  A
C428        C429   1.399       .  A
C428        H437   1.084       .  S
C429        C430   1.412       .  A
C429        S433   1.803       .  S
C430        C431   1.401   1_455  A
C431        C432   1.399       .  A
C431        H438   1.084       .  S
C432        S434   1.804       .  S
S433        H436   1.404       .  S
S434        H435   1.405       .  S
C439        C440   1.403   1_455  A
C439        C444   1.411       .  A
C440        C441   1.403       .  A
C440        H449   1.084       .  S
C441        C442   1.413       .  A
C441        S445   1.803       .  S
C442        C443   1.402   1_655  A
C443        C444   1.396       .  A
C443        H450   1.084       .  S
C444        S446   1.804       .  S
S445        H448   1.406       .  S
S446        H447   1.407       .  S
C451        C452   1.402   1_455  A
C451        C456   1.411       .  A
C452        C453   1.399       .  A
C452        H461   1.084       .  S
C453        C454   1.412       .  A
C453        S457   1.805       .  S
C454        C455   1.402   1_655  A
C455        C456   1.399       .  A
C455        H462   1.084       .  S
C456        S458   1.803       .  S
S457        H460   1.402       .  S
S458        H459   1.406       .  S
C463        C464   1.406   1_455  A
C463        C468   1.414       .  A
C464        C465   1.406       .  A
C464        H473   1.083       .  S
C465        C466   1.414   1_655  A
C465        S469   1.802       .  S
C466        C467   1.401       .  A
C467        C468   1.393       .  A
C467        H474   1.084       .  S
C468        S470   1.805       .  S
S469        H472   1.406       .  S
S470        H471   1.407       .  S
C475        C476   1.406       .  A
C475        C480   1.417   1_655  A
C476        C477   1.399       .  A
C476        H485   1.083       .  S
C477        C478   1.416       .  A
C477        S481   1.800       .  S
C478        C479   1.406   1_655  A
C479        C480   1.403       .  A
C479        H486   1.082       .  S
C480        S482   1.808       .  S
S481        H484   1.408   1_655  S
S482        H483   1.407       .  S
C487        C488   1.402       .  A
C487        C492   1.415   1_655  A
C488        C489   1.393       .  A
C488        H497   1.084       .  S
C489        C490   1.413       .  A
C489        S493   1.805       .  S
C490        C491   1.405   1_655  A
C491        C492   1.406       .  A
C491        H498   1.084       .  S
C492        S494   1.801       .  S
S493        H496   1.407       .  S
S494        H495   1.406       .  S
C499        C500   1.403       .  A
C499        C504   1.416   1_455  A
C500        C501   1.392       .  A
C500        H509   1.084       .  S
C501        C502   1.412       .  A
C501        S505   1.805       .  S
C502        C503   1.405   1_455  A
C503        C504   1.406       .  A
C503        H510   1.084       .  S
C504        S506   1.801       .  S
S505        H508   1.407       .  S
S506        H507   1.406       .  S
C511        C512   1.403   1_655  A
C511        C516   1.413       .  A
C512        C513   1.399       .  A
C512        H521   1.084       .  S
C513        C514   1.411       .  A
C513        S517   1.802       .  S
C514        C515   1.402   1_455  A
C515        C516   1.399       .  A
C515        H522   1.083       .  S
C516        S518   1.803       .  S
S517        H520   1.406       .  S
S518        H519   1.407       .  S
C523        C524   1.402   1_554  A
C523        C528   1.413       .  A
C524        C525   1.397       .  A
C524        H533   1.083       .  S
C525        C526   1.414       .  A
C525        S529   1.803       .  S
C526        C527   1.405   1_556  A
C527        C528   1.402       .  A
C527        H534   1.084       .  S
C528        S530   1.803       .  S
S529        H532   1.407       .  S
S530        H531   1.407       .  S
C535        C536   1.402   1_554  A
C535        C540   1.411       .  A
C536        C537   1.402       .  A
C536        H545   1.084       .  S
C537        C538   1.412       .  A
C537        S541   1.803       .  S
C538        C539   1.401   1_556  A
C539        C540   1.398       .  A
C539        H546   1.084       .  S
C540        S542   1.804       .  S
S541        H544   1.404       .  S
S542        H543   1.406       .  S
C547        C548   1.404   1_554  A
C547        C552   1.415       .  A
C548        C549   1.399       .  A
C548        H557   1.084       .  S
C549        C550   1.412       .  A
C549        S553   1.804       .  S
C550        C551   1.402   1_556  A
C551        C552   1.399       .  A
C551        H558   1.083       .  S
C552        S554   1.803       .  S
S553        H556   1.407       .  S
S554        H555   1.407       .  S
C559        C560   1.401   1_556  A
C559        C564   1.413       .  A
C560        C561   1.397       .  A
C560        H569   1.084       .  S
C561        C562   1.411       .  A
C561        S565   1.804       .  S
C562        C563   1.402   1_554  A
C563        C564   1.402       .  A
C563        H570   1.084       .  S
C564        S566   1.803       .  S
S565        H568   1.406       .  S
S566        H567   1.403       .  S
C571        C572   1.402   1_556  A
C571        C576   1.411       .  A
C572        C573   1.399       .  A
C572        H581   1.083       .  S
C573        C574   1.412       .  A
C573        S577   1.803       .  S
C574        C575   1.402   1_554  A
C575        C576   1.399       .  A
C575        H582   1.084       .  S
C576        S578   1.801       .  S
S577        H580   1.407       .  S
S578        H579   1.407       .  S
C583        C584   1.404   1_554  A
C583        C588   1.411       .  A
C584        C585   1.404       .  A
C584        H593   1.084       .  S
C585        C586   1.414   1_556  A
C585        S589   1.803       .  S
C586        C587   1.401       .  A
C587        C588   1.395       .  A
C587        H594   1.084       .  S
C588        S590   1.804       .  S
S589        H592   1.406       .  S
S590        H591   1.407       .  S
C595        C596   1.403   1_554  A
C595        C600   1.411       .  A
C596        C597   1.404       .  A
C596        H605   1.084       .  S
C597        C598   1.414   1_556  A
C597        S601   1.803       .  S
C598        C599   1.401       .  A
C599        C600   1.396       .  A
C599        H606   1.084       .  S
C600        S602   1.804       .  S
S601        H604   1.406       .  S
S602        H603   1.407       .  S
C607        C608   1.403   1_554  A
C607        C612   1.415       .  A
C608        C609   1.397       .  A
C608        H617   1.084       .  S
C609        C610   1.413   1_556  A
C609        S613   1.798       .  S
C610        C611   1.404       .  A
C611        C612   1.401       .  A
C611        H618   1.084       .  S
C612        S614   1.803       .  S
S613        H616   1.407       .  S
S614        H615   1.407       .  S
