geometry optimzed in LAMMPS
_audit_creation_date              2020-11-30 
_audit_creation_method            'lammps2cif' 
_symmetry_space_group_name_H-M    'P1' 
_symmetry_Int_Tables_number       1 
_symmetry_cell_setting            triclinic 
loop_ 
_symmetry_equiv_pos_as_xyz 
  x,y,z 
_cell_length_a                    27.00128586 
_cell_length_b                    47.714611518884894 
_cell_length_c                    30.06909911717755 
_cell_angle_alpha                 90.56819365547666 
_cell_angle_beta                  89.5960286691314 
_cell_angle_gamma                 81.11867577304837 
loop_ 
_atom_site_label 
_atom_site_type_symbol 
_atom_site_fract_x 
_atom_site_fract_y 
_atom_site_fract_z 
_atom_site_charge 
N1          N  0.08909578  0.16776755  0.23729505    -0.02300
C2          C  0.13951706  0.15930639  0.23693884     0.00300
C3          C  0.15084076  0.13186455  0.25112493    -0.22600
C4          C  0.10603377  0.12329137  0.26175916    -0.22800
C5          C  0.06843351  0.14588098  0.25384267     0.00200
H6          H  0.18733593  0.11954212  0.25427958     0.14000
H7          H  0.10187166  0.10305154  0.27556698     0.14000
N8          N  0.14331207  0.30958626  0.24242201    -0.02300
C9          C  0.18594639  0.31480506  0.22125901     0.00300
C10         C  0.19716923  0.29746914  0.18469202    -0.22600
C11         C  0.16242675  0.27989899  0.18398388    -0.22800
C12         C  0.13235175  0.28615865  0.22112778     0.00200
H13         H  0.22673233  0.29804220  0.16042972     0.14000
H14         H  0.15711744  0.26543707  0.15731209     0.14000
N15         N  0.27234886  0.32413612  0.23824034    -0.02300
C16         C  0.22200969  0.33272357  0.23711653     0.00300
C17         C  0.21054080  0.36052249  0.25059753    -0.22600
C18         C  0.25519864  0.36919010  0.26152543    -0.22800
C19         C  0.29278096  0.34626572  0.25452104     0.00200
H20         H  0.17394615  0.37303143  0.25290782     0.14000
H21         H  0.25930398  0.38976865  0.27455910     0.14000
O22         O  0.30562741  0.28186768  0.27143223    -0.73200
O23         O  0.05580271  0.21053069  0.27082225    -0.73300
O24         O  0.07161777  0.26657700  0.26742065    -0.73300
O25         O  0.28977679  0.22587942  0.26813687    -0.73400
O26         O  0.28927676  0.23001759  0.19436356    -0.73300
O27         O  0.07264158  0.26152943  0.19362615    -0.73300
O28         O  0.05156718  0.20773199  0.19689775    -0.72600
O29         O  0.31032846  0.28376044  0.19745920    -0.73300
Ni30       Ni  0.01405842  0.24622269  0.27241717     1.25400
Ni31       Ni  0.01430174  0.24573941  0.19304498     1.25400
C32         C  0.29693980  0.29538477  0.23536909     0.89000
C33         C  0.06460185  0.19653074  0.23465976     0.88900
C34         C  0.08972314  0.27114377  0.22875030     0.88900
C35         C  0.27178188  0.22095869  0.22965976     0.89100
N36         N  0.21772705  0.18280063  0.24343961    -0.02300
C37         C  0.17596575  0.17709489  0.22165067     0.00300
C38         C  0.16563163  0.19393666  0.18510659    -0.22600
C39         C  0.19990590  0.21174831  0.18500062    -0.22800
C40         C  0.22893260  0.20607267  0.22237597     0.00200
H41         H  0.13692030  0.19289908  0.16051717     0.14000
H42         H  0.20591266  0.22582861  0.15838459     0.14000
C43         C  0.28956386  0.11946791  0.30461421     0.87700
C44         C  0.00535042  0.13186922  0.30413434    -0.52500
C45         C  0.01473604  0.14586288  0.26649139     0.10600
C46         C  0.30368108  0.14864948  0.23338752     0.21600
C47         C  0.24951957  0.14615073  0.29839305    -0.53300
C48         C  0.25601984  0.16089941  0.26066125     0.10700
C49         C  0.29000416  0.10285154  0.26028253    -0.52800
C50         C  0.29683849  0.11773034  0.22255129     0.11300
H51         H  0.03358604  0.12697262  0.32966696     0.15800
H52         H  0.30860035  0.16174288  0.20400637     0.01500
H53         H  0.21849666  0.15345041  0.32045523     0.16100
H54         H  0.28721121  0.08043406  0.25963598     0.15900
C55         C  0.07087204  0.37258301  0.30640898     0.87700
C56         C  0.02185089  0.35999840  0.30548309    -0.52500
C57         C  0.01294176  0.34633492  0.26708105     0.10600
C58         C  0.05752478  0.34412152  0.23359772     0.21600
C59         C  0.11121138  0.34620621  0.29850556    -0.53300
C60         C  0.10510747  0.33175756  0.26010712     0.10700
C61         C  0.07030123  0.38975033  0.26319555    -0.52800
C62         C  0.06367634  0.37531675  0.22460107     0.11300
H63         H  0.32665144  0.36455256  0.33134624     0.15800
H64         H  0.05296260  0.33132821  0.20342608     0.01500
H65         H  0.14189295  0.33873852  0.32024769     0.16100
H66         H  0.07244443  0.41224725  0.26401109     0.15900
C67         C  0.30719975  0.05469932  0.47063760     0.04300
C68         C  0.30356214  0.07109843  0.00966747    -0.11800
C69         C  0.31557040  0.05829801  0.05065589     0.01800
C70         C  0.33406681  0.02917060  0.05242444    -0.10300
C71         C  0.33722605  0.01200543  0.01379199     0.04300
C72         C  0.32110413  0.02517757  0.47333848    -0.09800
H73         H  0.29155998  0.09381322  0.00818657     0.09900
H74         H  0.34599352  0.02038684  0.08426601     0.07400
H75         H  0.31972686  0.01292558  0.44310167     0.07300
C76         C  0.05466204  0.43658182  0.47483267     0.04300
C77         C  0.05722153  0.42153117  0.01457095    -0.11800
C78         C  0.04421396  0.43578339  0.05490584     0.01800
C79         C  0.02602416  0.46508039  0.05492715    -0.10300
C80         C  0.02418107  0.48078957  0.01514107     0.04300
C81         C  0.04155266  0.46611949  0.47581569    -0.09800
H82         H  0.06876261  0.39874298  0.01407896     0.09900
H83         H  0.01310448  0.47507829  0.08616194     0.07400
H84         H  0.04383372  0.47716407  0.44486215     0.07300
C85         C  0.07250852  0.39207078  0.34794349    -0.04100
C86         C  0.11382786  0.39086891  0.37755294    -0.01300
C87         C  0.10801533  0.40537911  0.41907080     0.03700
C88         C  0.06165204  0.42150230  0.43121283    -0.04100
C89         C  0.02244217  0.42516595  0.40019217    -0.01200
C90         C  0.02947880  0.41261701  0.35778232     0.03700
C91         C  0.16406754  0.37848075  0.36425674     0.38400
C92         C  0.30724365  0.44132719  0.41212141     0.38400
C93         C  0.32681792  0.42274169  0.32365799     0.36800
C94         C  0.15038880  0.40470121  0.44875891     0.36800
N95         N  0.29885632  0.43211808  0.29669562    -0.38000
N96         N  0.18411329  0.40432842  0.47240639    -0.38000
N97         N  0.26849173  0.45403260  0.42158158    -0.37500
N98         N  0.20513253  0.36920663  0.35534409    -0.37500
C99         C  0.06053188  0.38954450  0.17938955    -0.04100
C100        C  0.09168422  0.41027457  0.16884806    -0.01300
C101        C  0.08595393  0.42525104  0.12842777     0.03700
C102        C  0.04977570  0.41984875  0.09741130    -0.04100
C103        C  0.02016055  0.39874274  0.10628396    -0.01200
C104        C  0.02520302  0.38372706  0.14675755     0.03700
C105        C  0.13064095  0.41665033  0.19856260     0.38400
C106        C  0.98359407  0.39273254  0.07363953     0.38400
C107        C  0.99256605  0.36277611  0.15329126     0.36800
C108        C  0.11841629  0.44599104  0.11811718     0.36800
N109        N  0.29905607  0.34611802  0.15466624    -0.38000
N110        N  0.14427569  0.46248713  0.10988783    -0.38000
N111        N  0.28806108  0.38782389  0.04753939    -0.37500
N112        N  0.16143047  0.42309717  0.22139587    -0.37500
C113        C  0.28796721  0.09935890  0.34502499    -0.04100
C114        C  0.33048112  0.07813802  0.35261195    -0.01300
C115        C  0.33745759  0.06456019  0.39393077     0.03700
C116        C  0.29912670  0.06864095  0.42644284    -0.04100
C117        C  0.25308961  0.08551441  0.41619528    -0.01200
C118        C  0.24713071  0.10059410  0.37567104     0.03700
C119        C  0.36631979  0.06866971  0.31727692     0.38400
C120        C  0.21106618  0.08653509  0.44690489     0.38400
C121        C  0.19711415  0.11398485  0.36447935     0.36800
C122        C  0.38523608  0.04710982  0.40330344     0.36800
N123        N  0.15625284  0.12405984  0.35709156    -0.38000
N124        N  0.09004469  0.03330866  0.41066439    -0.38000
N125        N  0.17754499  0.08724328  0.47130474    -0.37500
N126        N  0.06082934  0.05991664  0.28920281    -0.37500
C127        C  0.29873900  0.10440344  0.17630507    -0.04100
C128        C  0.33383922  0.11052039  0.14339295    -0.01300
C129        C  0.33837434  0.09596869  0.10202940     0.03700
C130        C  0.30813721  0.07528746  0.09247778    -0.04100
C131        C  0.27118066  0.07021877  0.12317790    -0.01200
C132        C  0.26649355  0.08436377  0.16479881     0.03700
C133        C  0.36715837  0.13104247  0.15071414     0.38400
C134        C  0.23721674  0.05050777  0.11135237     0.38400
C135        C  0.22810225  0.07744975  0.19493061     0.36800
C136        C  0.37529155  0.10181087  0.06932575     0.36800
N137        N  0.19781213  0.07039836  0.21788244    -0.38000
N138        N  0.40448854  0.10654231  0.04319497    -0.38000
N139        N  0.21021319  0.03488250  0.10162393    -0.37500
N140        N  0.39449400  0.14741318  0.15281456    -0.37500
N141        N  0.08909582  0.16776744  0.73729602    -0.02300
C142        C  0.13951713  0.15930631  0.73693984     0.00300
C143        C  0.15084088  0.13186451  0.75112602    -0.22600
C144        C  0.10603394  0.12329124  0.76176016    -0.22800
C145        C  0.06843359  0.14588083  0.75384353     0.00200
H146        H  0.18733612  0.11954205  0.75428063     0.14000
H147        H  0.10187191  0.10305143  0.77556780     0.14000
N148        N  0.14331190  0.30958624  0.74242160    -0.02300
C149        C  0.18594629  0.31480496  0.72125861     0.00300
C150        C  0.19716906  0.29746900  0.68469166    -0.22600
C151        C  0.16242650  0.27989890  0.68398354    -0.22800
C152        C  0.13235153  0.28615863  0.72112744     0.00200
H153        H  0.22673225  0.29804196  0.66042938     0.14000
H154        H  0.15711718  0.26543693  0.65731184     0.14000
N155        N  0.27234877  0.32413600  0.73824004    -0.02300
C156        C  0.22200961  0.33272346  0.73711613     0.00300
C157        C  0.21054072  0.36052239  0.75059703    -0.22600
C158        C  0.25519855  0.36919000  0.76152496    -0.22800
C159        C  0.29278086  0.34626560  0.75452068     0.00200
H160        H  0.17394608  0.37303135  0.75290724     0.14000
H161        H  0.25930385  0.38976854  0.77455856     0.14000
O162        O  0.30562746  0.28186769  0.77143227    -0.73200
O163        O  0.05580286  0.21053076  0.77082282    -0.73300
O164        O  0.07161772  0.26657706  0.76742058    -0.73300
O165        O  0.28977689  0.22587941  0.76813741    -0.73400
O166        O  0.28927689  0.23001728  0.69436405    -0.73300
O167        O  0.07264154  0.26152914  0.69362613    -0.73300
O168        O  0.05156712  0.20773171  0.69689837    -0.72600
O169        O  0.31032848  0.28376018  0.69745922    -0.73300
Ni170      Ni  0.01405848  0.24622273  0.77241743     1.25400
Ni171      Ni  0.01430171  0.24573913  0.69304524     1.25400
C172        C  0.29693976  0.29538463  0.73536902     0.89000
C173        C  0.06460186  0.19653062  0.73466046     0.88900
C174        C  0.08972304  0.27114369  0.72875014     0.88900
C175        C  0.27178198  0.22095854  0.72966036     0.89100
N176        N  0.21772713  0.18280053  0.74344030    -0.02300
C177        C  0.17596574  0.17709480  0.72165149     0.00300
C178        C  0.16563146  0.19393661  0.68510749    -0.22600
C179        C  0.19990569  0.21174830  0.68500151    -0.22800
C180        C  0.22893258  0.20607261  0.72237672     0.00200
H181        H  0.13692011  0.19289899  0.66051811     0.14000
H182        H  0.20591242  0.22582859  0.65838549     0.14000
C183        C  0.28956359  0.11946775  0.80461465     0.87700
C184        C  0.00535028  0.13186890  0.80413485    -0.52500
C185        C  0.01473607  0.14586258  0.76649201     0.10600
C186        C  0.30368116  0.14864936  0.73338809     0.21600
C187        C  0.24951958  0.14615067  0.79839360    -0.53300
C188        C  0.25601996  0.16089935  0.76066187     0.10700
C189        C  0.29000366  0.10285145  0.76028284    -0.52800
C190        C  0.29683827  0.11773029  0.72255167     0.11300
H191        H  0.03358586  0.12697221  0.82966753     0.15800
H192        H  0.30860066  0.16174276  0.70400697     0.01500
H193        H  0.21849667  0.15345042  0.82045570     0.16100
H194        H  0.28721034  0.08043405  0.75963614     0.15900
C195        C  0.07087177  0.37258288  0.80640882     0.87700
C196        C  0.02185075  0.35999813  0.80548285    -0.52500
C197        C  0.01294164  0.34633478  0.76708070     0.10600
C198        C  0.05752460  0.34412159  0.73359733     0.21600
C199        C  0.11121126  0.34620618  0.79850515    -0.53300
C200        C  0.10510738  0.33175761  0.76010664     0.10700
C201        C  0.07030073  0.38975034  0.76319554    -0.52800
C202        C  0.06367592  0.37531689  0.72460095     0.11300
H203        H  0.32665128  0.36455211  0.83134607     0.15800
H204        H  0.05296245  0.33132839  0.70342557     0.01500
H205        H  0.14189280  0.33873841  0.82024729     0.16100
H206        H  0.07244373  0.41224734  0.76401125     0.15900
C207        C  0.30719944  0.05469888  0.97063773     0.04300
C208        C  0.30356242  0.07109886  0.50966738    -0.11800
C209        C  0.31557050  0.05829838  0.55065582     0.01800
C210        C  0.33406675  0.02917097  0.55242431    -0.10300
C211        C  0.33722619  0.01200580  0.51379185     0.04300
C212        C  0.32110379  0.02517713  0.97333862    -0.09800
H213        H  0.29156036  0.09381366  0.50818650     0.09900
H214        H  0.34599320  0.02038718  0.58426596     0.07400
H215        H  0.31972643  0.01292511  0.94310192     0.07300
C216        C  0.05466220  0.43658156  0.97483262     0.04300
C217        C  0.05722131  0.42153149  0.51457102    -0.11800
C218        C  0.04421399  0.43578375  0.55490591     0.01800
C219        C  0.02602440  0.46508079  0.55492718    -0.10300
C220        C  0.02418126  0.48078993  0.51514107     0.04300
C221        C  0.04155267  0.46611919  0.97581572    -0.09800
H222        H  0.06876217  0.39874327  0.51407906     0.09900
H223        H  0.01310481  0.47507871  0.58616196     0.07400
H224        H  0.04383369  0.47716381  0.94486212     0.07300
C225        C  0.07250823  0.39207052  0.84794344    -0.04100
C226        C  0.11382776  0.39086883  0.87755267    -0.01300
C227        C  0.10801547  0.40537922  0.91907035     0.03700
C228        C  0.06165206  0.42150210  0.93121273    -0.04100
C229        C  0.02244187  0.42516555  0.90019236    -0.01200
C230        C  0.02947834  0.41261661  0.85778249     0.03700
C231        C  0.16406740  0.37848051  0.86425643     0.38400
C232        C  0.30724339  0.44132684  0.91212175     0.38400
C233        C  0.32681710  0.42274117  0.82365837     0.36800
C234        C  0.15038937  0.40470203  0.94875781     0.36800
N235        N  0.29885520  0.43211744  0.79669610    -0.38000
N236        N  0.18411422  0.40432998  0.97240465    -0.38000
N237        N  0.26849150  0.45403227  0.92158207    -0.37500
N238        N  0.20513231  0.36920635  0.85534374    -0.37500
C239        C  0.06053134  0.38954480  0.67938955    -0.04100
C240        C  0.09168401  0.41027469  0.66884806    -0.01300
C241        C  0.08595426  0.42525099  0.62842758     0.03700
C242        C  0.04977553  0.41984909  0.59741135    -0.04100
C243        C  0.02015968  0.39874346  0.60628420    -0.01200
C244        C  0.02520222  0.38372759  0.64675764     0.03700
C245        C  0.13064058  0.41665046  0.69856277     0.38400
C246        C  0.98359244  0.39273380  0.57364011     0.38400
C247        C  0.99256535  0.36277662  0.65329121     0.36800
C248        C  0.11841780  0.44599024  0.61811641     0.36800
N249        N  0.29905553  0.34611836  0.65466611    -0.38000
N250        N  0.14427835  0.46248565  0.60988640    -0.38000
N251        N  0.28805865  0.38782569  0.54754027    -0.37500
N252        N  0.16142998  0.42309732  0.72139615    -0.37500
C253        C  0.28796679  0.09935875  0.84502541    -0.04100
C254        C  0.33048050  0.07813769  0.85261209    -0.01300
C255        C  0.33745697  0.06455973  0.89393081     0.03700
C256        C  0.29912627  0.06864054  0.92644303    -0.04100
C257        C  0.25308928  0.08551417  0.91619577    -0.01200
C258        C  0.24713044  0.10059411  0.87567174     0.03700
C259        C  0.36631903  0.06866945  0.81727694     0.38400
C260        C  0.21106578  0.08653458  0.94690530     0.38400
C261        C  0.19711407  0.11398539  0.86448064     0.36800
C262        C  0.38523532  0.04710910  0.90330318     0.36800
N263        N  0.15625285  0.12406089  0.85709335    -0.38000
N264        N  0.09004368  0.03330776  0.91066396    -0.38000
N265        N  0.17754452  0.08724239  0.97130497    -0.37500
N266        N  0.06082853  0.05991654  0.78920269    -0.37500
C267        C  0.29873885  0.10440349  0.67630535    -0.04100
C268        C  0.33383970  0.11052023  0.64339361    -0.01300
C269        C  0.33837501  0.09596858  0.60203000     0.03700
C270        C  0.30813724  0.07528776  0.59247782    -0.04100
C271        C  0.27118003  0.07021934  0.62317749    -0.01200
C272        C  0.26649299  0.08436411  0.66479863     0.03700
C273        C  0.36715945  0.13104194  0.65071526     0.38400
C274        C  0.23721535  0.05050887  0.61135117     0.38400
C275        C  0.22810139  0.07745013  0.69493016     0.36800
C276        C  0.37529312  0.10181036  0.56932687     0.36800
N277        N  0.19781097  0.07039873  0.71788162    -0.38000
N278        N  0.40449089  0.10654141  0.54319656    -0.38000
N279        N  0.21021139  0.03488402  0.60162195    -0.37500
N280        N  0.39449570  0.14741232  0.65281583    -0.37500
N281        N  0.08909538  0.66776750  0.23729508    -0.02300
C282        C  0.13951666  0.65930632  0.23693884     0.00300
C283        C  0.15084040  0.63186448  0.25112492    -0.22600
C284        C  0.10603338  0.62329130  0.26175917    -0.22800
C285        C  0.06843312  0.64588092  0.25384270     0.00200
H286        H  0.18733553  0.61954205  0.25427949     0.14000
H287        H  0.10187128  0.60305150  0.27556692     0.14000
N288        N  0.14331158  0.80958615  0.24242205    -0.02300
C289        C  0.18594591  0.81480491  0.22125904     0.00300
C290        C  0.19716866  0.79746899  0.18469200    -0.22600
C291        C  0.16242615  0.77989888  0.18398392    -0.22800
C292        C  0.13235118  0.78615856  0.22112781     0.00200
H293        H  0.22673171  0.79804204  0.16042965     0.14000
H294        H  0.15711679  0.76543690  0.15731213     0.14000
N295        N  0.27234836  0.82413604  0.23824024    -0.02300
C296        C  0.22200922  0.83272345  0.23711649     0.00300
C297        C  0.21054031  0.86052239  0.25059741    -0.22600
C298        C  0.25519818  0.86919003  0.26152517    -0.22800
C299        C  0.29278051  0.84626565  0.25452079     0.00200
H300        H  0.17394567  0.87303130  0.25290778     0.14000
H301        H  0.25930354  0.88976858  0.27455877     0.14000
O302        O  0.30562685  0.78186758  0.27143214    -0.73200
O303        O  0.05580226  0.71053066  0.27082226    -0.73300
O304        O  0.07161713  0.76657698  0.26742066    -0.73300
O305        O  0.28977630  0.72587934  0.26813680    -0.73400
O306        O  0.28927645  0.73001739  0.19436346    -0.73300
O307        O  0.07264103  0.76152935  0.19362617    -0.73300
O308        O  0.05156674  0.70773192  0.19689775    -0.72600
O309        O  0.31032803  0.78376036  0.19745913    -0.73300
Ni310      Ni  0.01405786  0.74622262  0.27241713     1.25400
Ni311      Ni  0.01430126  0.74573932  0.19304493     1.25400
C312        C  0.29693933  0.79538466  0.23536900     0.89000
C313        C  0.06460145  0.69653069  0.23465977     0.88900
C314        C  0.08972254  0.77114372  0.22875032     0.88900
C315        C  0.27178148  0.72095855  0.22965970     0.89100
N316        N  0.21772661  0.68280055  0.24343963    -0.02300
C317        C  0.17596532  0.67709481  0.22165066     0.00300
C318        C  0.16563117  0.69393659  0.18510659    -0.22600
C319        C  0.19990541  0.71174825  0.18500064    -0.22800
C320        C  0.22893215  0.70607259  0.22237594     0.00200
H321        H  0.13691986  0.69289896  0.16051715     0.14000
H322        H  0.20591220  0.72582856  0.15838458     0.14000
C323        C  0.28956343  0.61946779  0.30461412     0.87700
C324        C  0.00534994  0.63186912  0.30413432    -0.52500
C325        C  0.01473562  0.64586279  0.26649140     0.10600
C326        C  0.30368065  0.64864943  0.23338750     0.21600
C327        C  0.24951915  0.64615061  0.29839301    -0.53300
C328        C  0.25601941  0.66089933  0.26066125     0.10700
C329        C  0.29000376  0.60285144  0.26028239    -0.52800
C330        C  0.29683804  0.61773030  0.22255117     0.11300
H331        H  0.03358551  0.62697251  0.32966698     0.15800
H332        H  0.30859991  0.66174288  0.20400640     0.01500
H333        H  0.21849629  0.65345024  0.32045522     0.16100
H334        H  0.28721090  0.58043397  0.25963579     0.15900
C335        C  0.07087143  0.87258289  0.30640901     0.87700
C336        C  0.02185032  0.85999822  0.30548302    -0.52500
C337        C  0.01294130  0.84633480  0.26708090     0.10600
C338        C  0.05752437  0.84412146  0.23359763     0.21600
C339        C  0.11121086  0.84620615  0.29850553    -0.53300
C340        C  0.10510705  0.83175751  0.26010709     0.10700
C341        C  0.07030058  0.88975026  0.26319563    -0.52800
C342        C  0.06367584  0.87531669  0.22460111     0.11300
H343        H  0.32665082  0.86455231  0.33134615     0.15800
H344        H  0.05296229  0.83132819  0.20342597     0.01500
H345        H  0.14189245  0.83873843  0.32024774     0.16100
H346        H  0.07244360  0.91224720  0.26401123     0.15900
C347        C  0.30719923  0.55469921  0.47063750     0.04300
C348        C  0.30356198  0.57109839  0.00966737    -0.11800
C349        C  0.31557014  0.55829800  0.05065582     0.01800
C350        C  0.33406656  0.52917059  0.05242439    -0.10300
C351        C  0.33722607  0.51200543  0.01379196     0.04300
C352        C  0.32110395  0.52517748  0.47333842    -0.09800
H353        H  0.29155968  0.59381324  0.00818647     0.09900
H354        H  0.34599304  0.52038684  0.08426607     0.07400
H355        H  0.31972699  0.51292547  0.44310159     0.07300
C356        C  0.05466154  0.93658171  0.47483274     0.04300
C357        C  0.05722153  0.92153120  0.01457100    -0.11800
C358        C  0.04421389  0.93578338  0.05490592     0.01800
C359        C  0.02602392  0.96508038  0.05492719    -0.10300
C360        C  0.02418102  0.98078956  0.01514113     0.04300
C361        C  0.04155224  0.96611937  0.47581571    -0.09800
H362        H  0.06876267  0.89874296  0.01407896     0.09900
H363        H  0.01310402  0.97507825  0.08616192     0.07400
H364        H  0.04383328  0.97716391  0.44486211     0.07300
C365        C  0.07250784  0.89207063  0.34794354    -0.04100
C366        C  0.11382722  0.89086878  0.37755294    -0.01300
C367        C  0.10801468  0.90537892  0.41907083     0.03700
C368        C  0.06165142  0.92150213  0.43121290    -0.04100
C369        C  0.02244150  0.92516581  0.40019226    -0.01200
C370        C  0.02947808  0.91261684  0.35778240     0.03700
C371        C  0.16406695  0.87848069  0.36425664     0.38400
C372        C  0.30724298  0.94132704  0.41212143     0.38400
C373        C  0.32681722  0.92274157  0.32365800     0.36800
C374        C  0.15038815  0.90470096  0.44875900     0.36800
N375        N  0.29885560  0.93211787  0.29669558    -0.38000
N376        N  0.18411251  0.90432816  0.47240659    -0.38000
N377        N  0.26849098  0.95403240  0.42158160    -0.37500
N378        N  0.20513190  0.86920664  0.35534385    -0.37500
C379        C  0.06053145  0.88954447  0.17938962    -0.04100
C380        C  0.09168369  0.91027460  0.16884833    -0.01300
C381        C  0.08595354  0.92525109  0.12842807     0.03700
C382        C  0.04977553  0.91984875  0.09741140    -0.04100
C383        C  0.02016045  0.89874269  0.10628388    -0.01200
C384        C  0.02520278  0.88372699  0.14675746     0.03700
C385        C  0.13064039  0.91665031  0.19856297     0.38400
C386        C  0.98359414  0.89273245  0.07363928     0.38400
C387        C  0.99256577  0.86277610  0.15329111     0.36800
C388        C  0.11841581  0.94599116  0.11811771     0.36800
N389        N  0.29905590  0.84611790  0.15466618    -0.38000
N390        N  0.14427520  0.96248727  0.10988854    -0.38000
N391        N  0.28806114  0.88782384  0.04753905    -0.37500
N392        N  0.16142997  0.92309711  0.22139617    -0.37500
C393        C  0.28796672  0.59935880  0.34502489    -0.04100
C394        C  0.33048067  0.57813798  0.35261191    -0.01300
C395        C  0.33745714  0.56456018  0.39393076     0.03700
C396        C  0.29912617  0.56864085  0.42644276    -0.04100
C397        C  0.25308907  0.58551426  0.41619518    -0.01200
C398        C  0.24713017  0.60059401  0.37567097     0.03700
C399        C  0.36631939  0.56866967  0.31727691     0.38400
C400        C  0.21106546  0.58653466  0.44690457     0.38400
C401        C  0.19711361  0.61398478  0.36447934     0.36800
C402        C  0.38523571  0.54710993  0.40330353     0.36800
N403        N  0.15625227  0.62405982  0.35709153    -0.38000
N404        N  0.09004426  0.53330886  0.41066467    -0.38000
N405        N  0.17754409  0.58724258  0.47130411    -0.37500
N406        N  0.06082896  0.55991660  0.28920285    -0.37500
C407        C  0.29873849  0.60440343  0.17630494    -0.04100
C408        C  0.33383870  0.61052045  0.14339283    -0.01300
C409        C  0.33837397  0.59596867  0.10202934     0.03700
C410        C  0.30813686  0.57528744  0.09247769    -0.04100
C411        C  0.27118018  0.57021876  0.12317771    -0.01200
C412        C  0.26649311  0.58436372  0.16479866     0.03700
C413        C  0.36715789  0.63104253  0.15071405     0.38400
C414        C  0.23721611  0.55050783  0.11135203     0.38400
C415        C  0.22810177  0.57744963  0.19493047     0.36800
C416        C  0.37529123  0.60181084  0.06932574     0.36800
N417        N  0.19781173  0.57039819  0.21788222    -0.38000
N418        N  0.40448823  0.60654226  0.04319495    -0.38000
N419        N  0.21021256  0.53488256  0.10162362    -0.37500
N420        N  0.39449367  0.64741318  0.15281457    -0.37500
N421        N  0.08909593  0.66776751  0.73729592    -0.02300
C422        C  0.13951725  0.65930641  0.73693977     0.00300
C423        C  0.15084105  0.63186456  0.75112579    -0.22600
C424        C  0.10603407  0.62329126  0.76175982    -0.22800
C425        C  0.06843372  0.64588084  0.75384337     0.00200
H426        H  0.18733620  0.61954216  0.75428038     0.14000
H427        H  0.10187206  0.60305139  0.77556739     0.14000
N428        N  0.14331210  0.80958624  0.74242175    -0.02300
C429        C  0.18594649  0.81480498  0.72125880     0.00300
C430        C  0.19716928  0.79746908  0.68469179    -0.22600
C431        C  0.16242675  0.77989896  0.68398367    -0.22800
C432        C  0.13235174  0.78615864  0.72112756     0.00200
H433        H  0.22673240  0.79804214  0.66042948     0.14000
H434        H  0.15711740  0.76543701  0.65731187     0.14000
N435        N  0.27234895  0.82413600  0.73824021    -0.02300
C436        C  0.22200982  0.83272344  0.73711639     0.00300
C437        C  0.21054085  0.86052239  0.75059734    -0.22600
C438        C  0.25519871  0.86918997  0.76152533    -0.22800
C439        C  0.29278102  0.84626560  0.75452095     0.00200
H440        H  0.17394633  0.87303130  0.75290744     0.14000
H441        H  0.25930400  0.88976852  0.77455893     0.14000
O442        O  0.30562775  0.78186770  0.77143236    -0.73200
O443        O  0.05580284  0.71053073  0.77082284    -0.73300
O444        O  0.07161798  0.76657699  0.76742067    -0.73300
O445        O  0.28977702  0.72587946  0.76813749    -0.73400
O446        O  0.28927712  0.73001728  0.69436414    -0.73300
O447        O  0.07264155  0.76152933  0.69362617    -0.73300
O448        O  0.05156737  0.70773183  0.69689835    -0.72600
O449        O  0.31032848  0.78376020  0.69745929    -0.73300
Ni450      Ni  0.01405863  0.74622272  0.77241748     1.25400
Ni451      Ni  0.01430182  0.74573921  0.69304528     1.25400
C452        C  0.29693994  0.79538465  0.73536911     0.89000
C453        C  0.06460198  0.69653066  0.73466043     0.88900
C454        C  0.08972320  0.77114372  0.72875024     0.88900
C455        C  0.27178215  0.72095858  0.72966045     0.89100
N456        N  0.21772727  0.68280062  0.74344036    -0.02300
C457        C  0.17596587  0.67709494  0.72165151     0.00300
C458        C  0.16563170  0.69393674  0.68510746    -0.22600
C459        C  0.19990594  0.71174842  0.68500153    -0.22800
C460        C  0.22893274  0.70607270  0.72237678     0.00200
H461        H  0.13692040  0.69289913  0.66051801     0.14000
H462        H  0.20591279  0.72582870  0.65838550     0.14000
C463        C  0.28956372  0.61946773  0.80461458     0.87700
C464        C  0.00535046  0.63186886  0.80413479    -0.52500
C465        C  0.01473622  0.64586256  0.76649193     0.10600
C466        C  0.30368120  0.64864935  0.73338802     0.21600
C467        C  0.24951973  0.64615067  0.79839362    -0.53300
C468        C  0.25602006  0.66089938  0.76066186     0.10700
C469        C  0.29000373  0.60285144  0.76028277    -0.52800
C470        C  0.29683826  0.61773028  0.72255158     0.11300
H471        H  0.03358602  0.62697214  0.82966747     0.15800
H472        H  0.30860064  0.66174278  0.70400692     0.01500
H473        H  0.21849697  0.65345043  0.82045585     0.16100
H474        H  0.28721042  0.58043403  0.75963610     0.15900
C475        C  0.07087201  0.87258289  0.80640888     0.87700
C476        C  0.02185096  0.85999814  0.80548301    -0.52500
C477        C  0.01294183  0.84633477  0.76708083     0.10600
C478        C  0.05752478  0.84412155  0.73359745     0.21600
C479        C  0.11121148  0.84620618  0.79850528    -0.53300
C480        C  0.10510758  0.83175760  0.76010676     0.10700
C481        C  0.07030093  0.88975032  0.76319558    -0.52800
C482        C  0.06367609  0.87531684  0.72460102     0.11300
H483        H  0.32665159  0.86455213  0.83134627     0.15800
H484        H  0.05296267  0.83132834  0.70342567     0.01500
H485        H  0.14189296  0.83873839  0.82024741     0.16100
H486        H  0.07244379  0.91224733  0.76401123     0.15900
C487        C  0.30719950  0.55469887  0.97063764     0.04300
C488        C  0.30356175  0.57109876  0.50966724    -0.11800
C489        C  0.31556997  0.55829837  0.55065569     0.01800
C490        C  0.33406635  0.52917097  0.55242429    -0.10300
C491        C  0.33722596  0.51200577  0.51379184     0.04300
C492        C  0.32110401  0.52517712  0.97333853    -0.09800
H493        H  0.29155954  0.59381356  0.50818631     0.09900
H494        H  0.34599280  0.52038724  0.58426597     0.07400
H495        H  0.31972681  0.51292514  0.94310184     0.07300
C496        C  0.05466221  0.93658156  0.97483269     0.04300
C497        C  0.05722090  0.92153142  0.51457114    -0.11800
C498        C  0.04421360  0.93578372  0.55490601     0.01800
C499        C  0.02602407  0.96508076  0.55492723    -0.10300
C500        C  0.02418096  0.98078988  0.51514108     0.04300
C501        C  0.04155270  0.96611921  0.97581577    -0.09800
H502        H  0.06876173  0.89874320  0.51407923     0.09900
H503        H  0.01310456  0.97507873  0.58616201     0.07400
H504        H  0.04383381  0.97716382  0.94486226     0.07300
C505        C  0.07250846  0.89207060  0.84794345    -0.04100
C506        C  0.11382796  0.89086889  0.87755270    -0.01300
C507        C  0.10801556  0.90537924  0.91907043     0.03700
C508        C  0.06165213  0.92150212  0.93121279    -0.04100
C509        C  0.02244200  0.92516558  0.90019237    -0.01200
C510        C  0.02947858  0.91261669  0.85778247     0.03700
C511        C  0.16406757  0.87848052  0.86425659     0.38400
C512        C  0.30724351  0.94132685  0.91212174     0.38400
C513        C  0.32681744  0.92274127  0.82365835     0.36800
C514        C  0.15038940  0.90470195  0.94875799     0.36800
N515        N  0.29885554  0.93211760  0.79669610    -0.38000
N516        N  0.18411422  0.90432974  0.97240489    -0.38000
N517        N  0.26849163  0.95403220  0.92158206    -0.37500
N518        N  0.20513253  0.86920626  0.85534400    -0.37500
C519        C  0.06053136  0.88954475  0.67938963    -0.04100
C520        C  0.09168389  0.91027471  0.66884812    -0.01300
C521        C  0.08595399  0.92525102  0.62842767     0.03700
C522        C  0.04977521  0.91984909  0.59741149    -0.04100
C523        C  0.02015941  0.89874343  0.60628440    -0.01200
C524        C  0.02520221  0.88372751  0.64675777     0.03700
C525        C  0.13064051  0.91665050  0.69856277     0.38400
C526        C  0.98359208  0.89273377  0.57364039     0.38400
C527        C  0.99256549  0.86277644  0.65329130     0.36800
C528        C  0.11841740  0.94599033  0.61811646     0.36800
N529        N  0.29905591  0.84611811  0.65466613    -0.38000
N530        N  0.14427785  0.96248578  0.60988642    -0.38000
N531        N  0.28805823  0.88782564  0.54754059    -0.37500
N532        N  0.16142991  0.92309742  0.72139610    -0.37500
C533        C  0.28796690  0.59935869  0.84502531    -0.04100
C534        C  0.33048061  0.57813764  0.85261199    -0.01300
C535        C  0.33745712  0.56455968  0.89393070     0.03700
C536        C  0.29912638  0.56864047  0.92644290    -0.04100
C537        C  0.25308934  0.58551402  0.91619557    -0.01200
C538        C  0.24713049  0.60059400  0.87567158     0.03700
C539        C  0.36631922  0.56866940  0.81727683     0.38400
C540        C  0.21106581  0.58653435  0.94690503     0.38400
C541        C  0.19711412  0.61398531  0.86448048     0.36800
C542        C  0.38523544  0.54710906  0.90330307     0.36800
N543        N  0.15625293  0.62406083  0.85709309    -0.38000
N544        N  0.09004397  0.53330774  0.91066389    -0.38000
N545        N  0.17754453  0.58724212  0.97130467    -0.37500
N546        N  0.06082881  0.55991653  0.78920253    -0.37500
C547        C  0.29873868  0.60440348  0.67630522    -0.04100
C548        C  0.33383942  0.61052022  0.64339337    -0.01300
C549        C  0.33837462  0.59596858  0.60202974     0.03700
C550        C  0.30813672  0.57528782  0.59247760    -0.04100
C551        C  0.27117956  0.57021942  0.62317734    -0.01200
C552        C  0.26649275  0.58436413  0.66479854     0.03700
C553        C  0.36715914  0.63104196  0.65071498     0.38400
C554        C  0.23721496  0.55050888  0.61135121     0.38400
C555        C  0.22810131  0.57745007  0.69493025     0.36800
C556        C  0.37529274  0.60181031  0.56932655     0.36800
N557        N  0.19781107  0.57039869  0.71788187    -0.38000
N558        N  0.40449051  0.60654134  0.54319624    -0.38000
N559        N  0.21021102  0.53488394  0.60162224    -0.37500
N560        N  0.39449523  0.64741240  0.65281576    -0.37500
N561        N  0.42242913  0.16776759  0.23729506    -0.02300
C562        C  0.47285044  0.15930640  0.23693885     0.00300
C563        C  0.48417413  0.13186456  0.25112493    -0.22600
C564        C  0.43936713  0.12329139  0.26175915    -0.22800
C565        C  0.40176687  0.14588099  0.25384267     0.00200
H566        H  0.52066930  0.11954212  0.25427958     0.14000
H567        H  0.43520502  0.10305156  0.27556697     0.14000
N568        N  0.47664539  0.30958625  0.24242203    -0.02300
C569        C  0.51927974  0.31480503  0.22125903     0.00300
C570        C  0.53050250  0.29746911  0.18469202    -0.22600
C571        C  0.49575995  0.27989902  0.18398384    -0.22800
C572        C  0.46568499  0.28615867  0.22112776     0.00200
H573        H  0.56006561  0.29804213  0.16042970     0.14000
H574        H  0.49045060  0.26543710  0.15731205     0.14000
N575        N  0.60568223  0.32413612  0.23824030    -0.02300
C576        C  0.55534305  0.33272356  0.23711651     0.00300
C577        C  0.54387418  0.36052248  0.25059753    -0.22600
C578        C  0.58853202  0.36919009  0.26152543    -0.22800
C579        C  0.62611433  0.34626572  0.25452102     0.00200
H580        H  0.50727953  0.37303142  0.25290783     0.14000
H581        H  0.59263736  0.38976864  0.27455911     0.14000
O582        O  0.63896076  0.28186767  0.27143216    -0.73200
O583        O  0.38913603  0.21053072  0.27082225    -0.73300
O584        O  0.40495102  0.26657701  0.26742066    -0.73300
O585        O  0.62311006  0.22587944  0.26813686    -0.73400
O586        O  0.62261011  0.23001758  0.19436354    -0.73300
O587        O  0.40597481  0.26152943  0.19362617    -0.73300
O588        O  0.38490047  0.20773201  0.19689775    -0.72600
O589        O  0.64366184  0.28376044  0.19745913    -0.73300
Ni590      Ni  0.34739169  0.24622270  0.27241717     1.25400
Ni591      Ni  0.34763498  0.24573942  0.19304498     1.25400
C592        C  0.63027318  0.29538477  0.23536901     0.89000
C593        C  0.39793521  0.19653075  0.23465976     0.88900
C594        C  0.42305638  0.27114378  0.22875030     0.88900
C595        C  0.60511518  0.22095870  0.22965974     0.89100
N596        N  0.55106041  0.18280062  0.24343959    -0.02300
C597        C  0.50929911  0.17709487  0.22165065     0.00300
C598        C  0.49896495  0.19393665  0.18510660    -0.22600
C599        C  0.53323916  0.21174834  0.18500063    -0.22800
C600        C  0.56226592  0.20607268  0.22237595     0.00200
H601        H  0.47025361  0.19289903  0.16051720     0.14000
H602        H  0.53924585  0.22582866  0.15838465     0.14000
C603        C  0.62289723  0.11946791  0.30461421     0.87700
C604        C  0.33868377  0.13186924  0.30413435    -0.52500
C605        C  0.34806939  0.14586289  0.26649139     0.10600
C606        C  0.63701446  0.14864948  0.23338751     0.21600
C607        C  0.58285294  0.14615073  0.29839304    -0.53300
C608        C  0.58935322  0.16089941  0.26066124     0.10700
C609        C  0.62333753  0.10285154  0.26028252    -0.52800
C610        C  0.63017187  0.11773034  0.22255128     0.11300
H611        H  0.36691941  0.12697262  0.32966695     0.15800
H612        H  0.64193375  0.16174288  0.20400637     0.01500
H613        H  0.55183004  0.15345041  0.32045523     0.16100
H614        H  0.62054458  0.08043406  0.25963596     0.15900
C615        C  0.40420540  0.37258301  0.30640899     0.87700
C616        C  0.35518423  0.35999840  0.30548308    -0.52500
C617        C  0.34627508  0.34633492  0.26708104     0.10600
C618        C  0.39085812  0.34412152  0.23359772     0.21600
C619        C  0.44454475  0.34620621  0.29850557    -0.53300
C620        C  0.43844083  0.33175756  0.26010713     0.10700
C621        C  0.40363459  0.38975032  0.26319557    -0.52800
C622        C  0.39700968  0.37531674  0.22460109     0.11300
H623        H  0.65998473  0.36455254  0.33134623     0.15800
H624        H  0.38629594  0.33132823  0.20342606     0.01500
H625        H  0.47522633  0.33873852  0.32024769     0.16100
H626        H  0.40577775  0.41224724  0.26401113     0.15900
C627        C  0.64053312  0.05469933  0.47063760     0.04300
C628        C  0.63689529  0.07109834  0.00966750    -0.11800
C629        C  0.64890374  0.05829794  0.05065590     0.01800
C630        C  0.66740023  0.02917054  0.05242441    -0.10300
C631        C  0.67055944  0.01200538  0.01379196     0.04300
C632        C  0.65443750  0.02517758  0.47333849    -0.09800
H633        H  0.62489308  0.09381314  0.00818662     0.09900
H634        H  0.67932701  0.02038678  0.08426596     0.07400
H635        H  0.65306020  0.01292559  0.44310168     0.07300
C636        C  0.38799540  0.43658182  0.47483273     0.04300
C637        C  0.39055492  0.42153118  0.01457095    -0.11800
C638        C  0.37754731  0.43578340  0.05490586     0.01800
C639        C  0.35935738  0.46508037  0.05492713    -0.10300
C640        C  0.35751439  0.48078957  0.01514107     0.04300
C641        C  0.37488596  0.46611948  0.47581573    -0.09800
H642        H  0.40209603  0.39874299  0.01407896     0.09900
H643        H  0.34643755  0.47507827  0.08616192     0.07400
H644        H  0.37716711  0.47716406  0.44486222     0.07300
C645        C  0.40584189  0.39207076  0.34794351    -0.04100
C646        C  0.44716124  0.39086892  0.37755296    -0.01300
C647        C  0.44134871  0.40537912  0.41907082     0.03700
C648        C  0.39498541  0.42150228  0.43121288    -0.04100
C649        C  0.35577550  0.42516589  0.40019223    -0.01200
C650        C  0.36281215  0.41261696  0.35778237     0.03700
C651        C  0.49740091  0.37848076  0.36425675     0.38400
C652        C  0.64057692  0.44132720  0.41212141     0.38400
C653        C  0.66015126  0.42274171  0.32365792     0.36800
C654        C  0.48372218  0.40470122  0.44875899     0.36800
N655        N  0.63218981  0.43211805  0.29669544    -0.38000
N656        N  0.51744654  0.40432843  0.47240658    -0.38000
N657        N  0.60182497  0.45403255  0.42158154    -0.37500
N658        N  0.53846590  0.36920663  0.35534409    -0.37500
C659        C  0.39386514  0.38954453  0.17938959    -0.04100
C660        C  0.42501737  0.41027464  0.16884816    -0.01300
C661        C  0.41928716  0.42525111  0.12842789     0.03700
C662        C  0.38310905  0.41984876  0.09741133    -0.04100
C663        C  0.35349393  0.39874275  0.10628395    -0.01200
C664        C  0.35853630  0.38372710  0.14675757     0.03700
C665        C  0.46397416  0.41665036  0.19856270     0.38400
C666        C  0.31692747  0.39273253  0.07363948     0.38400
C667        C  0.32589931  0.36277621  0.15329128     0.36800
C668        C  0.45174957  0.44599107  0.11811732     0.36800
N669        N  0.63238942  0.34611801  0.15466625    -0.38000
N670        N  0.47760904  0.46248710  0.10988790    -0.38000
N671        N  0.62139446  0.38782389  0.04753938    -0.37500
N672        N  0.49476376  0.42309716  0.22139584    -0.37500
C673        C  0.62130057  0.09935891  0.34502499    -0.04100
C674        C  0.66381448  0.07813803  0.35261195    -0.01300
C675        C  0.67079088  0.06456018  0.39393076     0.03700
C676        C  0.63246006  0.06864098  0.42644286    -0.04100
C677        C  0.58642300  0.08551449  0.41619538    -0.01200
C678        C  0.58046409  0.10059414  0.37567108     0.03700
C679        C  0.69965317  0.06866971  0.31727693     0.38400
C680        C  0.54439959  0.08653516  0.44690498     0.38400
C681        C  0.53044752  0.11398485  0.36447936     0.36800
C682        C  0.71856937  0.04710979  0.40330343     0.36800
N683        N  0.48958621  0.12405984  0.35709155    -0.38000
N684        N  0.42337804  0.03330869  0.41066438    -0.38000
N685        N  0.51087834  0.08724328  0.47130481    -0.37500
N686        N  0.39416272  0.05991665  0.28920283    -0.37500
C687        C  0.63207235  0.10440343  0.17630507    -0.04100
C688        C  0.66717257  0.11052037  0.14339296    -0.01300
C689        C  0.67170772  0.09596863  0.10202943     0.03700
C690        C  0.64147061  0.07528739  0.09247784    -0.04100
C691        C  0.60451401  0.07021873  0.12317792    -0.01200
C692        C  0.59982689  0.08436375  0.16479883     0.03700
C693        C  0.70049174  0.13104246  0.15071413     0.38400
C694        C  0.57055010  0.05050770  0.11135239     0.38400
C695        C  0.56143553  0.07744975  0.19493062     0.36800
C696        C  0.70862481  0.10181085  0.06932575     0.36800
N697        N  0.53114533  0.07039839  0.21788235    -0.38000
N698        N  0.73782171  0.10654233  0.04319488    -0.38000
N699        N  0.54354670  0.03488236  0.10162396    -0.37500
N700        N  0.72782737  0.14741317  0.15281456    -0.37500
N701        N  0.42242920  0.16776745  0.73729608    -0.02300
C702        C  0.47285051  0.15930634  0.73693998     0.00300
C703        C  0.48417426  0.13186452  0.75112608    -0.22600
C704        C  0.43936731  0.12329123  0.76176016    -0.22800
C705        C  0.40176698  0.14588083  0.75384354     0.00200
H706        H  0.52066948  0.11954204  0.75428064     0.14000
H707        H  0.43520528  0.10305141  0.77556776     0.14000
N708        N  0.47664524  0.30958623  0.74242162    -0.02300
C709        C  0.51927957  0.31480497  0.72125861     0.00300
C710        C  0.53050236  0.29746902  0.68469161    -0.22600
C711        C  0.49575981  0.27989890  0.68398355    -0.22800
C712        C  0.46568487  0.28615862  0.72112746     0.00200
H713        H  0.56006547  0.29804199  0.66042937     0.14000
H714        H  0.49045050  0.26543691  0.65731187     0.14000
N715        N  0.60568206  0.32413600  0.73824005    -0.02300
C716        C  0.55534293  0.33272345  0.73711612     0.00300
C717        C  0.54387401  0.36052240  0.75059703    -0.22600
C718        C  0.58853184  0.36918999  0.76152497    -0.22800
C719        C  0.62611418  0.34626560  0.75452069     0.00200
H720        H  0.50727937  0.37303132  0.75290724     0.14000
H721        H  0.59263715  0.38976854  0.77455857     0.14000
O722        O  0.63896084  0.28186771  0.77143228    -0.73200
O723        O  0.38913607  0.21053074  0.77082283    -0.73300
O724        O  0.40495106  0.26657704  0.76742058    -0.73300
O725        O  0.62311019  0.22587946  0.76813750    -0.73400
O726        O  0.62261012  0.23001732  0.69436415    -0.73300
O727        O  0.40597488  0.26152915  0.69362614    -0.73300
O728        O  0.38490052  0.20773171  0.69689836    -0.72600
O729        O  0.64366173  0.28376019  0.69745922    -0.73300
Ni730      Ni  0.34739176  0.24622272  0.77241743     1.25400
Ni731      Ni  0.34763505  0.24573913  0.69304524     1.25400
C732        C  0.63027308  0.29538463  0.73536903     0.89000
C733        C  0.39793517  0.19653062  0.73466047     0.88900
C734        C  0.42305639  0.27114367  0.72875015     0.88900
C735        C  0.60511524  0.22095859  0.72966047     0.89100
N736        N  0.55106048  0.18280057  0.74344039    -0.02300
C737        C  0.50929913  0.17709480  0.72165159     0.00300
C738        C  0.49896487  0.19393657  0.68510754    -0.22600
C739        C  0.53323906  0.21174828  0.68500154    -0.22800
C740        C  0.56226588  0.20607265  0.72237681     0.00200
H741        H  0.47025351  0.19289894  0.66051818     0.14000
H742        H  0.53924576  0.22582857  0.65838551     0.14000
C743        C  0.62289689  0.11946774  0.80461465     0.87700
C744        C  0.33868366  0.13186890  0.80413487    -0.52500
C745        C  0.34806946  0.14586257  0.76649202     0.10600
C746        C  0.63701450  0.14864936  0.73338811     0.21600
C747        C  0.58285291  0.14615068  0.79839363    -0.53300
C748        C  0.58935331  0.16089938  0.76066192     0.10700
C749        C  0.62333692  0.10285147  0.76028284    -0.52800
C750        C  0.63017158  0.11773030  0.72255168     0.11300
H751        H  0.36691923  0.12697221  0.82966756     0.15800
H752        H  0.64193403  0.16174276  0.70400699     0.01500
H753        H  0.55183003  0.15345043  0.82045576     0.16100
H754        H  0.62054351  0.08043405  0.75963615     0.15900
C755        C  0.40420508  0.37258287  0.80640882     0.87700
C756        C  0.35518406  0.35999811  0.80548287    -0.52500
C757        C  0.34627496  0.34633476  0.76708072     0.10600
C758        C  0.39085794  0.34412154  0.73359735     0.21600
C759        C  0.44454458  0.34620618  0.79850515    -0.53300
C760        C  0.43844072  0.33175759  0.76010668     0.10700
C761        C  0.40363398  0.38975031  0.76319552    -0.52800
C762        C  0.39700927  0.37531683  0.72460095     0.11300
H763        H  0.65998465  0.36455210  0.83134607     0.15800
H764        H  0.38629581  0.33132830  0.70342564     0.01500
H765        H  0.47522616  0.33873842  0.82024732     0.16100
H766        H  0.40577683  0.41224732  0.76401118     0.15900
C767        C  0.64053260  0.05469881  0.97063774     0.04300
C768        C  0.63689579  0.07109887  0.50966736    -0.11800
C769        C  0.64890382  0.05829841  0.55065581     0.01800
C770        C  0.66740011  0.02917100  0.55242433    -0.10300
C771        C  0.67055956  0.01200581  0.51379187     0.04300
C772        C  0.65443711  0.02517707  0.97333862    -0.09800
H773        H  0.62489373  0.09381367  0.50818646     0.09900
H774        H  0.67932653  0.02038722  0.58426599     0.07400
H775        H  0.65305981  0.01292506  0.94310185     0.07300
C776        C  0.38799556  0.43658157  0.97483263     0.04300
C777        C  0.39055463  0.42153150  0.51457109    -0.11800
C778        C  0.37754712  0.43578375  0.55490597     0.01800
C779        C  0.35935744  0.46508078  0.55492720    -0.10300
C780        C  0.35751436  0.48078991  0.51514108     0.04300
C781        C  0.37488604  0.46611919  0.97581573    -0.09800
H782        H  0.40209561  0.39874329  0.51407917     0.09900
H783        H  0.34643781  0.47507872  0.58616197     0.07400
H784        H  0.37716711  0.47716381  0.94486214     0.07300
C785        C  0.40584156  0.39207053  0.84794344    -0.04100
C786        C  0.44716110  0.39086882  0.87755266    -0.01300
C787        C  0.44134880  0.40537921  0.91907036     0.03700
C788        C  0.39498539  0.42150210  0.93121274    -0.04100
C789        C  0.35577519  0.42516556  0.90019238    -0.01200
C790        C  0.36281167  0.41261661  0.85778251     0.03700
C791        C  0.49740076  0.37848051  0.86425644     0.38400
C792        C  0.64057675  0.44132684  0.91212173     0.38400
C793        C  0.66015039  0.42274117  0.82365835     0.36800
C794        C  0.48372269  0.40470197  0.94875782     0.36800
N795        N  0.63218836  0.43211742  0.79669619    -0.38000
N796        N  0.51744762  0.40432980  0.97240462    -0.38000
N797        N  0.60182488  0.45403227  0.92158207    -0.37500
N798        N  0.53846567  0.36920636  0.85534375    -0.37500
C799        C  0.39386475  0.38954473  0.67938956    -0.04100
C800        C  0.42501731  0.41027470  0.66884813    -0.01300
C801        C  0.41928746  0.42525101  0.62842767     0.03700
C802        C  0.38310871  0.41984911  0.59741145    -0.04100
C803        C  0.35349291  0.39874345  0.60628429    -0.01200
C804        C  0.35853563  0.38372753  0.64675766     0.03700
C805        C  0.46397388  0.41665048  0.69856289     0.38400
C806        C  0.31692569  0.39273379  0.57364020     0.38400
C807        C  0.32589874  0.36277656  0.65329123     0.36800
C808        C  0.45175102  0.44599025  0.61811644     0.36800
N809        N  0.63238893  0.34611836  0.65466611    -0.38000
N810        N  0.47761160  0.46248561  0.60988642    -0.38000
N811        N  0.62139202  0.38782569  0.54754027    -0.37500
N812        N  0.49476325  0.42309730  0.72139634    -0.37500
C813        C  0.62130012  0.09935872  0.84502541    -0.04100
C814        C  0.66381387  0.07813768  0.85261212    -0.01300
C815        C  0.67079029  0.06455971  0.89393085     0.03700
C816        C  0.63245953  0.06864049  0.92644303    -0.04100
C817        C  0.58642254  0.08551413  0.91619574    -0.01200
C818        C  0.58046376  0.10059406  0.87567169     0.03700
C819        C  0.69965242  0.06866945  0.81727696     0.38400
C820        C  0.54439904  0.08653457  0.94690525     0.38400
C821        C  0.53044744  0.11398537  0.86448060     0.36800
C822        C  0.71856867  0.04710910  0.90330329     0.36800
N823        N  0.48958623  0.12406090  0.85709336    -0.38000
N824        N  0.42337707  0.03330776  0.91066396    -0.38000
N825        N  0.51087778  0.08724239  0.97130501    -0.37500
N826        N  0.39416192  0.05991654  0.78920269    -0.37500
C827        C  0.63207222  0.10440349  0.67630536    -0.04100
C828        C  0.66717307  0.11052023  0.64339362    -0.01300
C829        C  0.67170833  0.09596861  0.60202999     0.03700
C830        C  0.64147050  0.07528782  0.59247777    -0.04100
C831        C  0.60451335  0.07021937  0.62317747    -0.01200
C832        C  0.59982636  0.08436411  0.66479863     0.03700
C833        C  0.70049283  0.13104193  0.65071527     0.38400
C834        C  0.57054872  0.05050887  0.61135118     0.38400
C835        C  0.56143477  0.07745012  0.69493016     0.36800
C836        C  0.70862648  0.10181036  0.56932687     0.36800
N837        N  0.53114434  0.07039872  0.71788163    -0.38000
N838        N  0.73782426  0.10654140  0.54319657    -0.38000
N839        N  0.54354477  0.03488401  0.60162195    -0.37500
N840        N  0.72782909  0.14741231  0.65281583    -0.37500
N841        N  0.42242872  0.66776750  0.23729508    -0.02300
C842        C  0.47285001  0.65930632  0.23693889     0.00300
C843        C  0.48417375  0.63186448  0.25112493    -0.22600
C844        C  0.43936674  0.62329130  0.26175917    -0.22800
C845        C  0.40176647  0.64588091  0.25384268     0.00200
H846        H  0.52066889  0.61954205  0.25427949     0.14000
H847        H  0.43520467  0.60305150  0.27556692     0.14000
N848        N  0.47664492  0.80958616  0.24242206    -0.02300
C849        C  0.51927926  0.81480491  0.22125906     0.00300
C850        C  0.53050204  0.79746898  0.18469205    -0.22600
C851        C  0.49575956  0.77989882  0.18398400    -0.22800
C852        C  0.46568454  0.78615856  0.22112787     0.00200
H853        H  0.56006507  0.79804202  0.16042967     0.14000
H854        H  0.49045025  0.76543683  0.15731231     0.14000
N855        N  0.60568174  0.82413604  0.23824024    -0.02300
C856        C  0.55534259  0.83272345  0.23711650     0.00300
C857        C  0.54387369  0.86052240  0.25059741    -0.22600
C858        C  0.58853156  0.86919003  0.26152517    -0.22800
C859        C  0.62611389  0.84626565  0.25452080     0.00200
H860        H  0.50727904  0.87303129  0.25290780     0.14000
H861        H  0.59263693  0.88976858  0.27455878     0.14000
O862        O  0.63896023  0.78186758  0.27143214    -0.73200
O863        O  0.38913557  0.71053065  0.27082226    -0.73300
O864        O  0.40495046  0.76657697  0.26742067    -0.73300
O865        O  0.62310967  0.72587934  0.26813680    -0.73400
O866        O  0.62260982  0.73001739  0.19436346    -0.73300
O867        O  0.40597433  0.76152940  0.19362618    -0.73300
O868        O  0.38490010  0.70773193  0.19689775    -0.72600
O869        O  0.64366142  0.78376036  0.19745913    -0.73300
Ni870      Ni  0.34739117  0.74622262  0.27241713     1.25400
Ni871      Ni  0.34763458  0.74573932  0.19304494     1.25400
C872        C  0.63027271  0.79538466  0.23536900     0.89000
C873        C  0.39793479  0.69653068  0.23465977     0.88900
C874        C  0.42305586  0.77114374  0.22875033     0.88900
C875        C  0.60511485  0.72095854  0.22965969     0.89100
N876        N  0.55105995  0.68280054  0.24343966    -0.02300
C877        C  0.50929870  0.67709477  0.22165068     0.00300
C878        C  0.49896461  0.69393647  0.18510654    -0.22600
C879        C  0.53323884  0.71174815  0.18500055    -0.22800
C880        C  0.56226553  0.70607255  0.22237592     0.00200
H881        H  0.47025328  0.69289882  0.16051714     0.14000
H882        H  0.53924557  0.72582844  0.15838453     0.14000
C883        C  0.62289670  0.61946779  0.30461410     0.87700
C884        C  0.33868334  0.63186913  0.30413431    -0.52500
C885        C  0.34806898  0.64586279  0.26649138     0.10600
C886        C  0.63701395  0.64864942  0.23338751     0.21600
C887        C  0.58285242  0.64615062  0.29839303    -0.53300
C888        C  0.58935275  0.66089933  0.26066127     0.10700
C889        C  0.62333697  0.60285145  0.26028238    -0.52800
C890        C  0.63017130  0.61773029  0.22255117     0.11300
H891        H  0.36691898  0.62697254  0.32966697     0.15800
H892        H  0.64193322  0.66174287  0.20400641     0.01500
H893        H  0.55182960  0.65345025  0.32045518     0.16100
H894        H  0.62054400  0.58043398  0.25963579     0.15900
C895        C  0.40420477  0.87258291  0.30640899     0.87700
C896        C  0.35518364  0.85999825  0.30548301    -0.52500
C897        C  0.34627460  0.84633482  0.26708090     0.10600
C898        C  0.39085769  0.84412145  0.23359762     0.21600
C899        C  0.44454419  0.84620615  0.29850556    -0.53300
C900        C  0.43844036  0.83175752  0.26010710     0.10700
C901        C  0.40363395  0.88975025  0.26319561    -0.52800
C902        C  0.39700919  0.87531669  0.22460109     0.11300
H903        H  0.65998420  0.86455230  0.33134616     0.15800
H904        H  0.38629566  0.83132819  0.20342596     0.01500
H905        H  0.47522567  0.83873842  0.32024778     0.16100
H906        H  0.40577697  0.91224720  0.26401119     0.15900
C907        C  0.64053257  0.55469920  0.47063750     0.04300
C908        C  0.63689524  0.57109840  0.00966737    -0.11800
C909        C  0.64890341  0.55829801  0.05065581     0.01800
C910        C  0.66739988  0.52917061  0.05242437    -0.10300
C911        C  0.67055937  0.51200545  0.01379195     0.04300
C912        C  0.65443732  0.52517748  0.47333842    -0.09800
H913        H  0.62489309  0.59381326  0.00818645     0.09900
H914        H  0.67932646  0.52038687  0.08426603     0.07400
H915        H  0.65306034  0.51292547  0.44310160     0.07300
C916        C  0.38799474  0.93658170  0.47483271     0.04300
C917        C  0.39055491  0.92153120  0.01457100    -0.11800
C918        C  0.37754724  0.93578337  0.05490591     0.01800
C919        C  0.35935730  0.96508038  0.05492719    -0.10300
C920        C  0.35751439  0.98078956  0.01514113     0.04300
C921        C  0.37488556  0.96611938  0.47581568    -0.09800
H922        H  0.40209605  0.89874296  0.01407895     0.09900
H923        H  0.34643740  0.97507825  0.08616192     0.07400
H924        H  0.37716667  0.97716393  0.44486211     0.07300
C925        C  0.40584124  0.89207066  0.34794350    -0.04100
C926        C  0.44716059  0.89086881  0.37755293    -0.01300
C927        C  0.44134802  0.90537894  0.41907084     0.03700
C928        C  0.39498472  0.92150212  0.43121289    -0.04100
C929        C  0.35577481  0.92516576  0.40019225    -0.01200
C930        C  0.36281148  0.91261685  0.35778236     0.03700
C931        C  0.49740032  0.87848069  0.36425665     0.38400
C932        C  0.64057635  0.94132703  0.41212143     0.38400
C933        C  0.66015050  0.92274154  0.32365803     0.36800
C934        C  0.48372148  0.90470098  0.44875902     0.36800
N935        N  0.63218889  0.93211788  0.29669557    -0.38000
N936        N  0.51744587  0.90432816  0.47240659    -0.38000
N937        N  0.60182436  0.95403240  0.42158160    -0.37500
N938        N  0.53846527  0.86920664  0.35534386    -0.37500
C939        C  0.39386476  0.88954447  0.17938960    -0.04100
C940        C  0.42501702  0.91027458  0.16884829    -0.01300
C941        C  0.41928682  0.92525109  0.12842805     0.03700
C942        C  0.38310885  0.91984874  0.09741137    -0.04100
C943        C  0.35349374  0.89874270  0.10628387    -0.01200
C944        C  0.35853604  0.88372703  0.14675748     0.03700
C945        C  0.46397366  0.91665031  0.19856294     0.38400
C946        C  0.31692742  0.89273246  0.07363928     0.38400
C947        C  0.32589909  0.86277612  0.15329113     0.36800
C948        C  0.45174908  0.94599118  0.11811772     0.36800
N949        N  0.63238906  0.84611796  0.15466617    -0.38000
N950        N  0.47760849  0.96248726  0.10988855    -0.38000
N951        N  0.62139452  0.88782384  0.04753904    -0.37500
N952        N  0.49476316  0.92309714  0.22139625    -0.37500
C953        C  0.62130003  0.59935880  0.34502489    -0.04100
C954        C  0.66381402  0.57813798  0.35261191    -0.01300
C955        C  0.67079048  0.56456018  0.39393075     0.03700
C956        C  0.63245951  0.56864082  0.42644274    -0.04100
C957        C  0.58642241  0.58551425  0.41619517    -0.01200
C958        C  0.58046352  0.60059401  0.37567098     0.03700
C959        C  0.69965275  0.56866968  0.31727691     0.38400
C960        C  0.54439881  0.58653467  0.44690457     0.38400
C961        C  0.53044697  0.61398478  0.36447934     0.36800
C962        C  0.71856906  0.54710993  0.40330354     0.36800
N963        N  0.48958564  0.62405982  0.35709153    -0.38000
N964        N  0.42337765  0.53330886  0.41066468    -0.38000
N965        N  0.51087745  0.58724259  0.47130413    -0.37500
N966        N  0.39416234  0.55991660  0.28920285    -0.37500
C967        C  0.63207177  0.60440343  0.17630494    -0.04100
C968        C  0.66717205  0.61052042  0.14339284    -0.01300
C969        C  0.67170732  0.59596865  0.10202934     0.03700
C970        C  0.64147017  0.57528743  0.09247769    -0.04100
C971        C  0.60451348  0.57021877  0.12317771    -0.01200
C972        C  0.59982633  0.58436375  0.16479863     0.03700
C973        C  0.70049115  0.63104251  0.15071405     0.38400
C974        C  0.57054945  0.55050782  0.11135204     0.38400
C975        C  0.56143497  0.57744966  0.19493044     0.36800
C976        C  0.70862460  0.60181083  0.06932573     0.36800
N977        N  0.53114500  0.57039817  0.21788225    -0.38000
N978        N  0.73782160  0.60654226  0.04319496    -0.38000
N979        N  0.54354593  0.53488255  0.10162361    -0.37500
N980        N  0.72782683  0.64741324  0.15281457    -0.37500
N981        N  0.42242928  0.66776751  0.73729592    -0.02300
C982        C  0.47285060  0.65930641  0.73693977     0.00300
C983        C  0.48417438  0.63186456  0.75112579    -0.22600
C984        C  0.43936740  0.62329126  0.76175980    -0.22800
C985        C  0.40176707  0.64588084  0.75384333     0.00200
H986        H  0.52066952  0.61954215  0.75428037     0.14000
H987        H  0.43520536  0.60305140  0.77556739     0.14000
N988        N  0.47664538  0.80958625  0.74242165    -0.02300
C989        C  0.51927983  0.81480495  0.72125878     0.00300
C990        C  0.53050269  0.79746897  0.68469186    -0.22600
C991        C  0.49576009  0.77989888  0.68398367    -0.22800
C992        C  0.46568505  0.78615864  0.72112754     0.00200
H993        H  0.56006587  0.79804198  0.66042960     0.14000
H994        H  0.49045075  0.76543698  0.65731192     0.14000
N995        N  0.60568228  0.82413598  0.73824023    -0.02300
C996        C  0.55534313  0.83272343  0.73711638     0.00300
C997        C  0.54387418  0.86052239  0.75059726    -0.22600
C998        C  0.58853207  0.86918999  0.76152516    -0.22800
C999        C  0.62611434  0.84626559  0.75452087     0.00200
H1000       H  0.50727966  0.87303131  0.75290743     0.14000
H1001       H  0.59263740  0.88976852  0.77455865     0.14000
O1002       O  0.63896108  0.78186768  0.77143236    -0.73200
O1003       O  0.38913620  0.71053073  0.77082285    -0.73300
O1004       O  0.40495133  0.76657698  0.76742067    -0.73300
O1005       O  0.62311040  0.72587943  0.76813742    -0.73400
O1006       O  0.62261042  0.73001732  0.69436407    -0.73300
O1007       O  0.40597489  0.76152934  0.69362617    -0.73300
O1008       O  0.38490077  0.70773183  0.69689835    -0.72600
O1009       O  0.64366185  0.78376021  0.69745929    -0.73300
Ni1010     Ni  0.34739197  0.74622272  0.77241750     1.25400
Ni1011     Ni  0.34763518  0.74573920  0.69304530     1.25400
C1012       C  0.63027327  0.79538464  0.73536911     0.89000
C1013       C  0.39793535  0.69653066  0.73466044     0.88900
C1014       C  0.42305653  0.77114372  0.72875022     0.88900
C1015       C  0.60511549  0.72095859  0.72966038     0.89100
N1016       N  0.55106061  0.68280063  0.74344035    -0.02300
C1017       C  0.50929921  0.67709493  0.72165151     0.00300
C1018       C  0.49896506  0.69393673  0.68510746    -0.22600
C1019       C  0.53323929  0.71174841  0.68500151    -0.22800
C1020       C  0.56226609  0.70607270  0.72237675     0.00200
H1021       H  0.47025377  0.69289913  0.66051800     0.14000
H1022       H  0.53924615  0.72582868  0.65838548     0.14000
C1023       C  0.62289701  0.61946773  0.80461458     0.87700
C1024       C  0.33868383  0.63186886  0.80413477    -0.52500
C1025       C  0.34806956  0.64586257  0.76649190     0.10600
C1026       C  0.63701452  0.64864937  0.73338804     0.21600
C1027       C  0.58285300  0.64615067  0.79839356    -0.53300
C1028       C  0.58935336  0.66089938  0.76066186     0.10700
C1029       C  0.62333707  0.60285145  0.76028275    -0.52800
C1030       C  0.63017160  0.61773030  0.72255158     0.11300
H1031       H  0.36691943  0.62697214  0.82966742     0.15800
H1032       H  0.64193397  0.66174280  0.70400695     0.01500
H1033       H  0.55183015  0.65345043  0.82045578     0.16100
H1034       H  0.62054375  0.58043403  0.75963609     0.15900
C1035       C  0.40420532  0.87258289  0.80640887     0.87700
C1036       C  0.35518431  0.85999813  0.80548302    -0.52500
C1037       C  0.34627513  0.84633478  0.76708088     0.10600
C1038       C  0.39085802  0.84412157  0.73359743     0.21600
C1039       C  0.44454478  0.84620618  0.79850520    -0.53300
C1040       C  0.43844085  0.83175762  0.76010669     0.10700
C1041       C  0.40363422  0.88975032  0.76319557    -0.52800
C1042       C  0.39700931  0.87531687  0.72460102     0.11300
H1043       H  0.65998489  0.86455213  0.83134620     0.15800
H1044       H  0.38629584  0.83132835  0.70342568     0.01500
H1045       H  0.47522629  0.83873839  0.82024730     0.16100
H1046       H  0.40577723  0.91224732  0.76401124     0.15900
C1047       C  0.64053267  0.55469888  0.97063765     0.04300
C1048       C  0.63689513  0.57109876  0.50966723    -0.11800
C1049       C  0.64890335  0.55829837  0.55065569     0.01800
C1050       C  0.66739973  0.52917097  0.55242429    -0.10300
C1051       C  0.67055934  0.51200578  0.51379184     0.04300
C1052       C  0.65443714  0.52517712  0.97333854    -0.09800
H1053       H  0.62489291  0.59381356  0.50818631     0.09900
H1054       H  0.67932618  0.52038725  0.58426597     0.07400
H1055       H  0.65305989  0.51292513  0.94310186     0.07300
C1056       C  0.38799561  0.93658157  0.97483270     0.04300
C1057       C  0.39055398  0.92153140  0.51457108    -0.11800
C1058       C  0.37754680  0.93578370  0.55490597     0.01800
C1059       C  0.35935740  0.96508076  0.55492721    -0.10300
C1060       C  0.35751432  0.98078989  0.51514106     0.04300
C1061       C  0.37488609  0.96611921  0.97581577    -0.09800
H1062       H  0.40209479  0.89874318  0.51407915     0.09900
H1063       H  0.34643798  0.97507875  0.58616202     0.07400
H1064       H  0.37716717  0.97716383  0.94486226     0.07300
C1065       C  0.40584184  0.89207059  0.84794345    -0.04100
C1066       C  0.44716134  0.89086888  0.87755269    -0.01300
C1067       C  0.44134896  0.90537923  0.91907042     0.03700
C1068       C  0.39498553  0.92150213  0.93121279    -0.04100
C1069       C  0.35577541  0.92516559  0.90019238    -0.01200
C1070       C  0.36281194  0.91261668  0.85778249     0.03700
C1071       C  0.49740096  0.87848052  0.86425651     0.38400
C1072       C  0.64057689  0.94132685  0.91212175     0.38400
C1073       C  0.66015070  0.92274128  0.82365833     0.36800
C1074       C  0.48372280  0.90470195  0.94875799     0.36800
N1075       N  0.63218869  0.93211758  0.79669617    -0.38000
N1076       N  0.51744760  0.90432974  0.97240489    -0.38000
N1077       N  0.60182500  0.95403220  0.92158206    -0.37500
N1078       N  0.53846586  0.86920627  0.85534374    -0.37500
C1079       C  0.39386468  0.88954475  0.67938961    -0.04100
C1080       C  0.42501723  0.91027471  0.66884809    -0.01300
C1081       C  0.41928726  0.92525102  0.62842764     0.03700
C1082       C  0.38310850  0.91984908  0.59741145    -0.04100
C1083       C  0.35349273  0.89874342  0.60628438    -0.01200
C1084       C  0.35853554  0.88372752  0.64675775     0.03700
C1085       C  0.46397388  0.91665050  0.69856275     0.38400
C1086       C  0.31692535  0.89273377  0.57364041     0.38400
C1087       C  0.32589886  0.86277645  0.65329129     0.36800
C1088       C  0.45175065  0.94599036  0.61811644     0.36800
N1089       N  0.63238907  0.84611816  0.65466612    -0.38000
N1090       N  0.47761114  0.96248577  0.60988643    -0.38000
N1091       N  0.62139160  0.88782564  0.54754057    -0.37500
N1092       N  0.49476328  0.92309742  0.72139609    -0.37500
C1093       C  0.62130021  0.59935871  0.84502532    -0.04100
C1094       C  0.66381389  0.57813763  0.85261197    -0.01300
C1095       C  0.67079035  0.56455968  0.89393069     0.03700
C1096       C  0.63245962  0.56864048  0.92644290    -0.04100
C1097       C  0.58642260  0.58551406  0.91619558    -0.01200
C1098       C  0.58046384  0.60059407  0.87567162     0.03700
C1099       C  0.69965245  0.56866939  0.81727677     0.38400
C1100       C  0.54439907  0.58653440  0.94690499     0.38400
C1101       C  0.53044746  0.61398536  0.86448049     0.36800
C1102       C  0.71856870  0.54710904  0.90330308     0.36800
N1103       N  0.48958628  0.62406083  0.85709307    -0.38000
N1104       N  0.42337720  0.53330769  0.91066392    -0.38000
N1105       N  0.51087776  0.58724229  0.97130469    -0.37500
N1106       N  0.39416221  0.55991650  0.78920272    -0.37500
C1107       C  0.63207200  0.60440351  0.67630521    -0.04100
C1108       C  0.66717276  0.61052024  0.64339336    -0.01300
C1109       C  0.67170799  0.59596858  0.60202975     0.03700
C1110       C  0.64147009  0.57528782  0.59247760    -0.04100
C1111       C  0.60451293  0.57021941  0.62317734    -0.01200
C1112       C  0.59982609  0.58436414  0.66479853     0.03700
C1113       C  0.70049250  0.63104195  0.65071500     0.38400
C1114       C  0.57054834  0.55050887  0.61135120     0.38400
C1115       C  0.56143467  0.57745007  0.69493025     0.36800
C1116       C  0.70862612  0.60181031  0.56932657     0.36800
N1117       N  0.53114443  0.57039868  0.71788188    -0.38000
N1118       N  0.73782389  0.60654134  0.54319625    -0.38000
N1119       N  0.54354440  0.53488394  0.60162224    -0.37500
N1120       N  0.72782859  0.64741239  0.65281576    -0.37500
N1121       N  0.75576247  0.16776756  0.23729505    -0.02300
C1122       C  0.80618377  0.15930639  0.23693884     0.00300
C1123       C  0.81750749  0.13186456  0.25112493    -0.22600
C1124       C  0.77270051  0.12329137  0.26175917    -0.22800
C1125       C  0.73510023  0.14588097  0.25384267     0.00200
H1126       H  0.85400267  0.11954213  0.25427954     0.14000
H1127       H  0.76853844  0.10305154  0.27556698     0.14000
N1128       N  0.80997876  0.30958626  0.24242204    -0.02300
C1129       C  0.85261312  0.31480503  0.22125903     0.00300
C1130       C  0.86383588  0.29746911  0.18469203    -0.22600
C1131       C  0.82909332  0.27989902  0.18398386    -0.22800
C1132       C  0.79901836  0.28615867  0.22112779     0.00200
H1133       H  0.89339901  0.29804212  0.16042972     0.14000
H1134       H  0.82378398  0.26543710  0.15731206     0.14000
N1135       N  0.93901560  0.32413611  0.23824033    -0.02300
C1136       C  0.88867642  0.33272356  0.23711652     0.00300
C1137       C  0.87720754  0.36052249  0.25059752    -0.22600
C1138       C  0.92186537  0.36919010  0.26152542    -0.22800
C1139       C  0.95944767  0.34626572  0.25452104     0.00200
H1140       H  0.84061289  0.37303142  0.25290783     0.14000
H1141       H  0.92597072  0.38976864  0.27455910     0.14000
O1142       O  0.97229420  0.28186768  0.27143224    -0.73200
O1143       O  0.72246931  0.21053070  0.27082226    -0.73300
O1144       O  0.73828430  0.26657703  0.26742064    -0.73300
O1145       O  0.95644347  0.22587945  0.26813687    -0.73400
O1146       O  0.95594351  0.23001757  0.19436356    -0.73300
O1147       O  0.73930819  0.26152941  0.19362616    -0.73300
O1148       O  0.71823380  0.20773198  0.19689775    -0.72600
O1149       O  0.97699526  0.28376044  0.19745920    -0.73300
Ni1150     Ni  0.68072498  0.24622270  0.27241714     1.25400
Ni1151     Ni  0.68096834  0.24573940  0.19304496     1.25400
C1152       C  0.96360658  0.29538477  0.23536909     0.89000
C1153       C  0.73126852  0.19653074  0.23465976     0.88900
C1154       C  0.75638971  0.27114378  0.22875030     0.88900
C1155       C  0.93844858  0.22095870  0.22965975     0.89100
N1156       N  0.88439373  0.18280063  0.24343962    -0.02300
C1157       C  0.84263244  0.17709488  0.22165065     0.00300
C1158       C  0.83229830  0.19393665  0.18510659    -0.22600
C1159       C  0.86657253  0.21174833  0.18500064    -0.22800
C1160       C  0.89559928  0.20607268  0.22237597     0.00200
H1161       H  0.80358698  0.19289904  0.16051716     0.14000
H1162       H  0.87257925  0.22582865  0.15838466     0.14000
C1163       C  0.95623052  0.11946787  0.30461415     0.87700
C1164       C  0.67201714  0.13186924  0.30413434    -0.52500
C1165       C  0.68140277  0.14586287  0.26649140     0.10600
C1166       C  0.97034774  0.14864949  0.23338751     0.21600
C1167       C  0.91618620  0.14615069  0.29839302    -0.53300
C1168       C  0.92268652  0.16089940  0.26066124     0.10700
C1169       C  0.95667086  0.10285152  0.26028246    -0.52800
C1170       C  0.96350517  0.11773035  0.22255124     0.11300
H1171       H  0.70025281  0.12697263  0.32966698     0.15800
H1172       H  0.97526702  0.16174290  0.20400637     0.01500
H1173       H  0.88516335  0.15345031  0.32045516     0.16100
H1174       H  0.95387804  0.08043403  0.25963586     0.15900
C1175       C  0.73753870  0.37258301  0.30640899     0.87700
C1176       C  0.68851755  0.35999837  0.30548310    -0.52500
C1177       C  0.67960844  0.34633490  0.26708104     0.10600
C1178       C  0.72419148  0.34412151  0.23359772     0.21600
C1179       C  0.77787807  0.34620624  0.29850556    -0.53300
C1180       C  0.77177420  0.33175758  0.26010712     0.10700
C1181       C  0.73696783  0.38975033  0.26319556    -0.52800
C1182       C  0.73034300  0.37531674  0.22460107     0.11300
H1183       H  0.99331807  0.36455256  0.33134626     0.15800
H1184       H  0.71962935  0.33132821  0.20342606     0.01500
H1185       H  0.80855966  0.33873855  0.32024770     0.16100
H1186       H  0.73911089  0.41224726  0.26401110     0.15900
C1187       C  0.97386642  0.05469931  0.47063756     0.04300
C1188       C  0.97022864  0.07109842  0.00966748    -0.11800
C1189       C  0.98223704  0.05829801  0.05065589     0.01800
C1190       C  0.00073345  0.02917060  0.05242443    -0.10300
C1191       C  0.00389269  0.01200543  0.01379199     0.04300
C1192       C  0.98777081  0.02517756  0.47333847    -0.09800
H1193       H  0.95822643  0.09381321  0.00818660     0.09900
H1194       H  0.01266015  0.02038684  0.08426601     0.07400
H1195       H  0.98639357  0.01292557  0.44310166     0.07300
C1196       C  0.72132875  0.43658182  0.47483272     0.04300
C1197       C  0.72388825  0.42153122  0.01457095    -0.11800
C1198       C  0.71088064  0.43578340  0.05490585     0.01800
C1199       C  0.69269071  0.46508041  0.05492713    -0.10300
C1200       C  0.69084778  0.48078959  0.01514107     0.04300
C1201       C  0.70821931  0.46611948  0.47581572    -0.09800
H1202       H  0.73542945  0.39874298  0.01407898     0.09900
H1203       H  0.67977082  0.47507830  0.08616187     0.07400
H1204       H  0.71050042  0.47716405  0.44486219     0.07300
C1205       C  0.73917520  0.39207077  0.34794350    -0.04100
C1206       C  0.78049457  0.39086893  0.37755295    -0.01300
C1207       C  0.77468201  0.40537912  0.41907081     0.03700
C1208       C  0.72831872  0.42150229  0.43121287    -0.04100
C1209       C  0.68910881  0.42516592  0.40019221    -0.01200
C1210       C  0.69614547  0.41261699  0.35778235     0.03700
C1211       C  0.83073427  0.37848076  0.36425675     0.38400
C1212       C  0.97391030  0.44132720  0.41212139     0.38400
C1213       C  0.99348456  0.42274169  0.32365793     0.36800
C1214       C  0.81705549  0.40470120  0.44875901     0.36800
N1215       N  0.96552310  0.43211804  0.29669542    -0.38000
N1216       N  0.85077983  0.40432842  0.47240656    -0.38000
N1217       N  0.93515835  0.45403254  0.42158154    -0.37500
N1218       N  0.87179927  0.36920664  0.35534410    -0.37500
C1219       C  0.72719855  0.38954449  0.17938955    -0.04100
C1220       C  0.75835078  0.41027461  0.16884812    -0.01300
C1221       C  0.75262048  0.42525110  0.12842788     0.03700
C1222       C  0.71644239  0.41984877  0.09741131    -0.04100
C1223       C  0.68682733  0.39874272  0.10628392    -0.01200
C1224       C  0.69186975  0.38372705  0.14675751     0.03700
C1225       C  0.79730753  0.41665035  0.19856266     0.38400
C1226       C  0.65026085  0.39273252  0.07363948     0.38400
C1227       C  0.65923271  0.36277617  0.15329126     0.36800
C1228       C  0.78508284  0.44599110  0.11811731     0.36800
N1229       N  0.96572294  0.34611788  0.15466624    -0.38000
N1230       N  0.81094233  0.46248709  0.10988791    -0.38000
N1231       N  0.95472774  0.38782389  0.04753934    -0.37500
N1232       N  0.82809711  0.42309716  0.22139582    -0.37500
C1233       C  0.95463384  0.09935887  0.34502492    -0.04100
C1234       C  0.99714780  0.07813804  0.35261193    -0.01300
C1235       C  0.00412428  0.06456022  0.39393077     0.03700
C1236       C  0.96579337  0.06864095  0.42644281    -0.04100
C1237       C  0.91975629  0.08551440  0.41619525    -0.01200
C1238       C  0.91379733  0.10059407  0.37567099     0.03700
C1239       C  0.03298645  0.06866971  0.31727690     0.38400
C1240       C  0.87773291  0.08653510  0.44690489     0.38400
C1241       C  0.86378075  0.11398483  0.36447935     0.36800
C1242       C  0.05190278  0.04710983  0.40330343     0.36800
N1243       N  0.82291942  0.12405986  0.35709154    -0.38000
N1244       N  0.75671131  0.03330870  0.41066437    -0.38000
N1245       N  0.84421175  0.08724328  0.47130476    -0.37500
N1246       N  0.72749610  0.05991665  0.28920283    -0.37500
C1247       C  0.96540572  0.10440343  0.17630505    -0.04100
C1248       C  0.00050602  0.11052036  0.14339297    -0.01300
C1249       C  0.00504105  0.09596867  0.10202940     0.03700
C1250       C  0.97480388  0.07528745  0.09247779    -0.04100
C1251       C  0.93784732  0.07021875  0.12317790    -0.01200
C1252       C  0.93316026  0.08436375  0.16479882     0.03700
C1253       C  0.03382518  0.13104243  0.15071416     0.38400
C1254       C  0.90388330  0.05050779  0.11135236     0.38400
C1255       C  0.89476890  0.07744975  0.19493061     0.36800
C1256       C  0.04195820  0.10181088  0.06932573     0.36800
N1257       N  0.86447871  0.07039839  0.21788235    -0.38000
N1258       N  0.07115519  0.10654231  0.04319494    -0.38000
N1259       N  0.87687966  0.03488255  0.10162396    -0.37500
N1260       N  0.06116073  0.14741321  0.15281456    -0.37500
N1261       N  0.75576247  0.16776744  0.73729602    -0.02300
C1262       C  0.80618382  0.15930633  0.73693983     0.00300
C1263       C  0.81750758  0.13186453  0.75112601    -0.22600
C1264       C  0.77270067  0.12329124  0.76176018    -0.22800
C1265       C  0.73510031  0.14588082  0.75384357     0.00200
H1266       H  0.85400285  0.11954207  0.75428060     0.14000
H1267       H  0.76853869  0.10305142  0.77556782     0.14000
N1268       N  0.80997858  0.30958621  0.74242166    -0.02300
C1269       C  0.85261298  0.31480493  0.72125869     0.00300
C1270       C  0.86383571  0.29746902  0.68469168    -0.22600
C1271       C  0.82909315  0.27989891  0.68398355    -0.22800
C1272       C  0.79901818  0.28615862  0.72112746     0.00200
H1273       H  0.89339886  0.29804205  0.66042940     0.14000
H1274       H  0.82378381  0.26543696  0.65731184     0.14000
N1275       N  0.93901545  0.32413600  0.73824005    -0.02300
C1276       C  0.88867631  0.33272344  0.73711617     0.00300
C1277       C  0.87720739  0.36052240  0.75059704    -0.22600
C1278       C  0.92186522  0.36918999  0.76152496    -0.22800
C1279       C  0.95944755  0.34626561  0.75452068     0.00200
H1280       H  0.84061275  0.37303134  0.75290725     0.14000
H1281       H  0.92597055  0.38976854  0.77455856     0.14000
O1282       O  0.97229416  0.28186769  0.77143227    -0.73200
O1283       O  0.72246939  0.21053073  0.77082283    -0.73300
O1284       O  0.73828442  0.26657702  0.76742058    -0.73300
O1285       O  0.95644358  0.22587944  0.76813742    -0.73400
O1286       O  0.95594352  0.23001733  0.69436406    -0.73300
O1287       O  0.73930811  0.26152919  0.69362612    -0.73300
O1288       O  0.71823374  0.20773172  0.69689836    -0.72600
O1289       O  0.97699518  0.28376019  0.69745922    -0.73300
Ni1290     Ni  0.68072511  0.24622273  0.77241746     1.25400
Ni1291     Ni  0.68096829  0.24573914  0.69304527     1.25400
C1292       C  0.96360647  0.29538463  0.73536902     0.89000
C1293       C  0.73126846  0.19653061  0.73466046     0.88900
C1294       C  0.75638968  0.27114368  0.72875014     0.88900
C1295       C  0.93844861  0.22095860  0.72966038     0.89100
N1296       N  0.88439377  0.18280058  0.74344032    -0.02300
C1297       C  0.84263241  0.17709483  0.72165148     0.00300
C1298       C  0.83229818  0.19393661  0.68510745    -0.22600
C1299       C  0.86657237  0.21174833  0.68500149    -0.22800
C1300       C  0.89559919  0.20607267  0.72237677     0.00200
H1301       H  0.80358683  0.19289898  0.66051807     0.14000
H1302       H  0.87257915  0.22582861  0.65838547     0.14000
C1303       C  0.95623020  0.11946775  0.80461464     0.87700
C1304       C  0.67201698  0.13186888  0.80413488    -0.52500
C1305       C  0.68140278  0.14586255  0.76649202     0.10600
C1306       C  0.97034778  0.14864936  0.73338807     0.21600
C1307       C  0.91618621  0.14615070  0.79839362    -0.53300
C1308       C  0.92268660  0.16089937  0.76066187     0.10700
C1309       C  0.95667026  0.10285146  0.76028284    -0.52800
C1310       C  0.96350488  0.11773029  0.72255167     0.11300
H1311       H  0.70025249  0.12697222  0.82966756     0.15800
H1312       H  0.97526723  0.16174275  0.70400695     0.01500
H1313       H  0.88516341  0.15345047  0.82045578     0.16100
H1314       H  0.95387688  0.08043404  0.75963616     0.15900
C1315       C  0.73753845  0.37258288  0.80640883     0.87700
C1316       C  0.68851741  0.35999812  0.80548287    -0.52500
C1317       C  0.67960830  0.34633478  0.76708070     0.10600
C1318       C  0.72419129  0.34412158  0.73359734     0.21600
C1319       C  0.77787794  0.34620619  0.79850514    -0.53300
C1320       C  0.77177408  0.33175761  0.76010667     0.10700
C1321       C  0.73696736  0.38975034  0.76319555    -0.52800
C1322       C  0.73034260  0.37531688  0.72460098     0.11300
H1323       H  0.99331796  0.36455211  0.83134607     0.15800
H1324       H  0.71962918  0.33132836  0.70342559     0.01500
H1325       H  0.80855951  0.33873841  0.82024732     0.16100
H1326       H  0.73911025  0.41224735  0.76401123     0.15900
C1327       C  0.97386594  0.05469888  0.97063774     0.04300
C1328       C  0.97022913  0.07109886  0.50966731    -0.11800
C1329       C  0.98223725  0.05829842  0.55065577     0.01800
C1330       C  0.00073355  0.02917101  0.55242429    -0.10300
C1331       C  0.00389289  0.01200580  0.51379186     0.04300
C1332       C  0.98777045  0.02517713  0.97333861    -0.09800
H1333       H  0.95822709  0.09381366  0.50818640     0.09900
H1334       H  0.01266005  0.02038723  0.58426596     0.07400
H1335       H  0.98639320  0.01292513  0.94310188     0.07300
C1336       C  0.72132883  0.43658157  0.97483262     0.04300
C1337       C  0.72388797  0.42153150  0.51457108    -0.11800
C1338       C  0.71088048  0.43578376  0.55490596     0.01800
C1339       C  0.69269083  0.46508078  0.55492719    -0.10300
C1340       C  0.69084774  0.48078991  0.51514108     0.04300
C1341       C  0.70821934  0.46611921  0.97581572    -0.09800
H1342       H  0.73542890  0.39874328  0.51407915     0.09900
H1343       H  0.67977120  0.47507872  0.58616197     0.07400
H1344       H  0.71050039  0.47716384  0.94486214     0.07300
C1345       C  0.73917490  0.39207054  0.84794344    -0.04100
C1346       C  0.78049442  0.39086884  0.87755268    -0.01300
C1347       C  0.77468212  0.40537922  0.91907039     0.03700
C1348       C  0.72831870  0.42150211  0.93121274    -0.04100
C1349       C  0.68910854  0.42516557  0.90019235    -0.01200
C1350       C  0.69614503  0.41261663  0.85778247     0.03700
C1351       C  0.83073403  0.37848052  0.86425645     0.38400
C1352       C  0.97391009  0.44132684  0.91212175     0.38400
C1353       C  0.99348373  0.42274117  0.82365835     0.36800
C1354       C  0.81705604  0.40470204  0.94875783     0.36800
N1355       N  0.96552173  0.43211743  0.79669617    -0.38000
N1356       N  0.85078096  0.40432998  0.97240462    -0.38000
N1357       N  0.93515823  0.45403229  0.92158208    -0.37500
N1358       N  0.87179893  0.36920631  0.85534371    -0.37500
C1359       C  0.72719803  0.38954479  0.67938959    -0.04100
C1360       C  0.75835059  0.41027475  0.66884814    -0.01300
C1361       C  0.75262075  0.42525105  0.62842767     0.03700
C1362       C  0.71644204  0.41984913  0.59741144    -0.04100
C1363       C  0.68682628  0.39874345  0.60628428    -0.01200
C1364       C  0.69186896  0.38372756  0.64675767     0.03700
C1365       C  0.79730724  0.41665048  0.69856280     0.38400
C1366       C  0.65025906  0.39273378  0.57364019     0.38400
C1367       C  0.65923212  0.36277657  0.65329124     0.36800
C1368       C  0.78508434  0.44599027  0.61811643     0.36800
N1369       N  0.96572222  0.34611834  0.65466611    -0.38000
N1370       N  0.81094498  0.46248560  0.60988642    -0.38000
N1371       N  0.95472538  0.38782569  0.54754024    -0.37500
N1372       N  0.82809674  0.42309731  0.72139612    -0.37500
C1373       C  0.95463340  0.09935876  0.84502540    -0.04100
C1374       C  0.99714712  0.07813770  0.85261210    -0.01300
C1375       C  0.00412355  0.06455974  0.89393082     0.03700
C1376       C  0.96579283  0.06864055  0.92644303    -0.04100
C1377       C  0.91975588  0.08551424  0.91619578    -0.01200
C1378       C  0.91379708  0.10059417  0.87567173     0.03700
C1379       C  0.03298567  0.06866945  0.81727695     0.38400
C1380       C  0.87773239  0.08653468  0.94690527     0.38400
C1381       C  0.86378066  0.11398542  0.86448061     0.36800
C1382       C  0.05190191  0.04710910  0.90330321     0.36800
N1383       N  0.82291944  0.12406086  0.85709337    -0.38000
N1384       N  0.75671039  0.03330779  0.91066423    -0.38000
N1385       N  0.84421111  0.08724257  0.97130501    -0.37500
N1386       N  0.72749530  0.05991655  0.78920270    -0.37500
C1387       C  0.96540550  0.10440349  0.67630534    -0.04100
C1388       C  0.00050635  0.11052024  0.64339360    -0.01300
C1389       C  0.00504168  0.09596862  0.60202997     0.03700
C1390       C  0.97480386  0.07528783  0.59247773    -0.04100
C1391       C  0.93784666  0.07021939  0.62317740    -0.01200
C1392       C  0.93315963  0.08436413  0.66479857     0.03700
C1393       C  0.03382608  0.13104194  0.65071528     0.38400
C1394       C  0.90388207  0.05050887  0.61135112     0.38400
C1395       C  0.89476807  0.07745011  0.69493013     0.36800
C1396       C  0.04195994  0.10181034  0.56932698     0.36800
N1397       N  0.86447772  0.07039872  0.71788164    -0.38000
N1398       N  0.07115792  0.10654140  0.54319682    -0.38000
N1399       N  0.87687814  0.03488399  0.60162194    -0.37500
N1400       N  0.06116233  0.14741232  0.65281584    -0.37500
N1401       N  0.75576205  0.66776750  0.23729508    -0.02300
C1402       C  0.80618334  0.65930633  0.23693886     0.00300
C1403       C  0.81750706  0.63186449  0.25112490    -0.22600
C1404       C  0.77270005  0.62329130  0.26175916    -0.22800
C1405       C  0.73509979  0.64588092  0.25384268     0.00200
H1406       H  0.85400218  0.61954204  0.25427942     0.14000
H1407       H  0.76853797  0.60305151  0.27556686     0.14000
N1408       N  0.80997830  0.80958615  0.24242204    -0.02300
C1409       C  0.85261265  0.81480490  0.22125905     0.00300
C1410       C  0.86383542  0.79746898  0.18469200    -0.22600
C1411       C  0.82909289  0.77989888  0.18398391    -0.22800
C1412       C  0.79901791  0.78615856  0.22112781     0.00200
H1413       H  0.89339846  0.79804204  0.16042965     0.14000
H1414       H  0.82378352  0.76543691  0.15731211     0.14000
N1415       N  0.93901509  0.82413604  0.23824023    -0.02300
C1416       C  0.88867597  0.83272344  0.23711649     0.00300
C1417       C  0.87720702  0.86052240  0.25059741    -0.22600
C1418       C  0.92186492  0.86919004  0.26152516    -0.22800
C1419       C  0.95944723  0.84626566  0.25452078     0.00200
H1420       H  0.84061246  0.87303128  0.25290780     0.14000
H1421       H  0.92597026  0.88976858  0.27455877     0.14000
O1422       O  0.97229355  0.78186758  0.27143214    -0.73200
O1423       O  0.72246895  0.71053066  0.27082226    -0.73300
O1424       O  0.73828386  0.76657697  0.26742066    -0.73300
O1425       O  0.95644300  0.72587933  0.26813679    -0.73400
O1426       O  0.95594309  0.73001743  0.19436346    -0.73300
O1427       O  0.73930771  0.76152940  0.19362616    -0.73300
O1428       O  0.71823347  0.70773193  0.19689775    -0.72600
O1429       O  0.97699478  0.78376036  0.19745913    -0.73300
Ni1430     Ni  0.68072456  0.74622263  0.27241713     1.25400
Ni1431     Ni  0.68096796  0.74573932  0.19304494     1.25400
C1432       C  0.96360608  0.79538467  0.23536900     0.89000
C1433       C  0.73126815  0.69653068  0.23465977     0.88900
C1434       C  0.75638925  0.77114373  0.22875032     0.88900
C1435       C  0.93844817  0.72095856  0.22965969     0.89100
N1436       N  0.88439331  0.68280055  0.24343962    -0.02300
C1437       C  0.84263202  0.67709481  0.22165066     0.00300
C1438       C  0.83229790  0.69393658  0.18510659    -0.22600
C1439       C  0.86657213  0.71174824  0.18500065    -0.22800
C1440       C  0.89559887  0.70607259  0.22237593     0.00200
H1441       H  0.80358658  0.69289896  0.16051716     0.14000
H1442       H  0.87257894  0.72582857  0.15838459     0.14000
C1443       C  0.95623002  0.61946779  0.30461411     0.87700
C1444       C  0.67201660  0.63186912  0.30413428    -0.52500
C1445       C  0.68140228  0.64586278  0.26649138     0.10600
C1446       C  0.97034732  0.64864942  0.23338752     0.21600
C1447       C  0.91618575  0.64615061  0.29839298    -0.53300
C1448       C  0.92268608  0.66089934  0.26066125     0.10700
C1449       C  0.95667033  0.60285145  0.26028239    -0.52800
C1450       C  0.96350468  0.61773030  0.22255118     0.11300
H1451       H  0.70025221  0.62697251  0.32966698     0.15800
H1452       H  0.97526662  0.66174287  0.20400644     0.01500
H1453       H  0.88516281  0.65345023  0.32045512     0.16100
H1454       H  0.95387736  0.58043398  0.25963578     0.15900
C1455       C  0.73753813  0.87258292  0.30640899     0.87700
C1456       C  0.68851702  0.85999824  0.30548302    -0.52500
C1457       C  0.67960797  0.84633481  0.26708092     0.10600
C1458       C  0.72419104  0.84412145  0.23359763     0.21600
C1459       C  0.77787757  0.84620615  0.29850554    -0.53300
C1460       C  0.77177374  0.83175752  0.26010707     0.10700
C1461       C  0.73696727  0.88975026  0.26319561    -0.52800
C1462       C  0.73034248  0.87531670  0.22460110     0.11300
H1463       H  0.99331750  0.86455229  0.33134612     0.15800
H1464       H  0.71962898  0.83132819  0.20342597     0.01500
H1465       H  0.80855904  0.83873842  0.32024777     0.16100
H1466       H  0.73911035  0.91224720  0.26401119     0.15900
C1467       C  0.97386588  0.55469920  0.47063750     0.04300
C1468       C  0.97022863  0.57109839  0.00966736    -0.11800
C1469       C  0.98223676  0.55829800  0.05065581     0.01800
C1470       C  0.00073314  0.52917059  0.05242438    -0.10300
C1471       C  0.00389265  0.51200542  0.01379195     0.04300
C1472       C  0.98777057  0.52517747  0.47333845    -0.09800
H1473       H  0.95822650  0.59381326  0.00818644     0.09900
H1474       H  0.01265967  0.52038685  0.08426605     0.07400
H1475       H  0.98639344  0.51292544  0.44310166     0.07300
C1476       C  0.72132807  0.93658170  0.47483271     0.04300
C1477       C  0.72388831  0.92153116  0.01457100    -0.11800
C1478       C  0.71088062  0.93578335  0.05490591     0.01800
C1479       C  0.69269071  0.96508035  0.05492717    -0.10300
C1480       C  0.69084780  0.98078952  0.01514113     0.04300
C1481       C  0.70821877  0.96611937  0.47581566    -0.09800
H1482       H  0.73542944  0.89874292  0.01407900     0.09900
H1483       H  0.67977077  0.97507824  0.08616192     0.07400
H1484       H  0.71049979  0.97716390  0.44486208     0.07300
C1485       C  0.73917457  0.89207067  0.34794349    -0.04100
C1486       C  0.78049391  0.89086882  0.37755293    -0.01300
C1487       C  0.77468137  0.90537895  0.41907085     0.03700
C1488       C  0.72831808  0.92150213  0.43121289    -0.04100
C1489       C  0.68910817  0.92516577  0.40019225    -0.01200
C1490       C  0.69614479  0.91261685  0.35778236     0.03700
C1491       C  0.83073359  0.87848070  0.36425665     0.38400
C1492       C  0.97390965  0.94132706  0.41212151     0.38400
C1493       C  0.99348384  0.92274154  0.32365803     0.36800
C1494       C  0.81705486  0.90470098  0.44875902     0.36800
N1495       N  0.96552227  0.93211788  0.29669556    -0.38000
N1496       N  0.85077926  0.90432816  0.47240658    -0.38000
N1497       N  0.93515765  0.95403233  0.42158183    -0.37500
N1498       N  0.87179853  0.86920659  0.35534382    -0.37500
C1499       C  0.72719807  0.88954446  0.17938960    -0.04100
C1500       C  0.75835034  0.91027458  0.16884830    -0.01300
C1501       C  0.75262012  0.92525111  0.12842809     0.03700
C1502       C  0.71644220  0.91984874  0.09741138    -0.04100
C1503       C  0.68682710  0.89874268  0.10628386    -0.01200
C1504       C  0.69186938  0.88372701  0.14675746     0.03700
C1505       C  0.79730702  0.91665030  0.19856293     0.38400
C1506       C  0.65026079  0.89273245  0.07363927     0.38400
C1507       C  0.65923236  0.86277611  0.15329112     0.36800
C1508       C  0.78508240  0.94599119  0.11811774     0.36800
N1509       N  0.96572244  0.84611796  0.15466617    -0.38000
N1510       N  0.81094186  0.96248724  0.10988855    -0.38000
N1511       N  0.95472790  0.88782383  0.04753903    -0.37500
N1512       N  0.82809653  0.92309713  0.22139623    -0.37500
C1513       C  0.95463334  0.59935880  0.34502489    -0.04100
C1514       C  0.99714727  0.57813796  0.35261189    -0.01300
C1515       C  0.00412375  0.56456016  0.39393073     0.03700
C1516       C  0.96579282  0.56864083  0.42644275    -0.04100
C1517       C  0.91975575  0.58551427  0.41619519    -0.01200
C1518       C  0.91379686  0.60059403  0.37567100     0.03700
C1519       C  0.03298598  0.56866966  0.31727690     0.38400
C1520       C  0.87773217  0.58653468  0.44690458     0.38400
C1521       C  0.86378032  0.61398479  0.36447936     0.36800
C1522       C  0.05190232  0.54710992  0.40330352     0.36800
N1523       N  0.82291901  0.62405983  0.35709153    -0.38000
N1524       N  0.75671101  0.53330887  0.41066467    -0.38000
N1525       N  0.84421082  0.58724259  0.47130414    -0.37500
N1526       N  0.72749571  0.55991660  0.28920286    -0.37500
C1527       C  0.96540513  0.60440343  0.17630494    -0.04100
C1528       C  0.00050535  0.61052045  0.14339283    -0.01300
C1529       C  0.00504061  0.59596867  0.10202934     0.03700
C1530       C  0.97480352  0.57528743  0.09247770    -0.04100
C1531       C  0.93784685  0.57021876  0.12317772    -0.01200
C1532       C  0.93315970  0.58436375  0.16479864     0.03700
C1533       C  0.03382452  0.63104253  0.15071404     0.38400
C1534       C  0.90388282  0.55050782  0.11135205     0.38400
C1535       C  0.89476835  0.57744966  0.19493044     0.36800
C1536       C  0.04195786  0.60181084  0.06932573     0.36800
N1537       N  0.86447838  0.57039817  0.21788226    -0.38000
N1538       N  0.07115485  0.60654226  0.04319494    -0.38000
N1539       N  0.87687930  0.53488255  0.10162361    -0.37500
N1540       N  0.06116029  0.64741318  0.15281457    -0.37500
N1541       N  0.75576263  0.66776751  0.73729591    -0.02300
C1542       C  0.80618393  0.65930642  0.73693976     0.00300
C1543       C  0.81750771  0.63186456  0.75112579    -0.22600
C1544       C  0.77270072  0.62329127  0.76175982    -0.22800
C1545       C  0.73510038  0.64588086  0.75384335     0.00200
H1546       H  0.85400284  0.61954217  0.75428036     0.14000
H1547       H  0.76853869  0.60305140  0.77556742     0.14000
N1548       N  0.80997869  0.80958625  0.74242166    -0.02300
C1549       C  0.85261315  0.81480493  0.72125873     0.00300
C1550       C  0.86383597  0.79746895  0.68469183    -0.22600
C1551       C  0.82909334  0.77989889  0.68398366    -0.22800
C1552       C  0.79901835  0.78615863  0.72112756     0.00200
H1553       H  0.89339916  0.79804192  0.66042955     0.14000
H1554       H  0.82378397  0.76543699  0.65731189     0.14000
N1555       N  0.93901561  0.82413599  0.73824018    -0.02300
C1556       C  0.88867643  0.83272345  0.73711625     0.00300
C1557       C  0.87720753  0.86052237  0.75059722    -0.22600
C1558       C  0.92186536  0.86918998  0.76152516    -0.22800
C1559       C  0.95944769  0.84626559  0.75452086     0.00200
H1560       H  0.84061286  0.87303133  0.75290746     0.14000
H1561       H  0.92597066  0.88976852  0.77455869     0.14000
O1562       O  0.97229440  0.78186770  0.77143236    -0.73200
O1563       O  0.72246957  0.71053073  0.77082283    -0.73300
O1564       O  0.73828460  0.76657701  0.76742068    -0.73300
O1565       O  0.95644373  0.72587944  0.76813743    -0.73400
O1566       O  0.95594375  0.73001732  0.69436407    -0.73300
O1567       O  0.73930824  0.76152931  0.69362618    -0.73300
O1568       O  0.71823409  0.70773183  0.69689835    -0.72600
O1569       O  0.97699513  0.78376020  0.69745929    -0.73300
Ni1570     Ni  0.68072530  0.74622271  0.77241747     1.25400
Ni1571     Ni  0.68096852  0.74573921  0.69304528     1.25400
C1572       C  0.96360658  0.79538464  0.73536910     0.89000
C1573       C  0.73126869  0.69653067  0.73466043     0.88900
C1574       C  0.75638983  0.77114373  0.72875024     0.88900
C1575       C  0.93844883  0.72095858  0.72966038     0.89100
N1576       N  0.88439397  0.68280062  0.74344034    -0.02300
C1577       C  0.84263257  0.67709494  0.72165152     0.00300
C1578       C  0.83229841  0.69393674  0.68510745    -0.22600
C1579       C  0.86657266  0.71174841  0.68500151    -0.22800
C1580       C  0.89559945  0.70607269  0.72237674     0.00200
H1581       H  0.80358715  0.69289915  0.66051804     0.14000
H1582       H  0.87257948  0.72582870  0.65838549     0.14000
C1583       C  0.95623037  0.61946772  0.80461458     0.87700
C1584       C  0.67201709  0.63186890  0.80413477    -0.52500
C1585       C  0.68140285  0.64586260  0.76649194     0.10600
C1586       C  0.97034789  0.64864935  0.73338804     0.21600
C1587       C  0.91618637  0.64615066  0.79839357    -0.53300
C1588       C  0.92268674  0.66089938  0.76066187     0.10700
C1589       C  0.95667042  0.60285144  0.76028276    -0.52800
C1590       C  0.96350495  0.61773028  0.72255158     0.11300
H1591       H  0.70025274  0.62697214  0.82966745     0.15800
H1592       H  0.97526736  0.66174278  0.70400695     0.01500
H1593       H  0.88516352  0.65345043  0.82045579     0.16100
H1594       H  0.95387714  0.58043402  0.75963609     0.15900
C1595       C  0.73753861  0.87258289  0.80640885     0.87700
C1596       C  0.68851757  0.85999814  0.80548300    -0.52500
C1597       C  0.67960844  0.84633477  0.76708084     0.10600
C1598       C  0.72419134  0.84412157  0.73359742     0.21600
C1599       C  0.77787805  0.84620618  0.79850520    -0.53300
C1600       C  0.77177417  0.83175762  0.76010669     0.10700
C1601       C  0.73696754  0.88975032  0.76319555    -0.52800
C1602       C  0.73034265  0.87531686  0.72460100     0.11300
H1603       H  0.99331831  0.86455211  0.83134619     0.15800
H1604       H  0.71962916  0.83132836  0.70342566     0.01500
H1605       H  0.80855961  0.83873841  0.82024731     0.16100
H1606       H  0.73911059  0.91224731  0.76401122     0.15900
C1607       C  0.97386607  0.55469887  0.97063764     0.04300
C1608       C  0.97022845  0.57109875  0.50966724    -0.11800
C1609       C  0.98223665  0.55829836  0.55065569     0.01800
C1610       C  0.00073323  0.52917099  0.55242427    -0.10300
C1611       C  0.00389280  0.51200579  0.51379184     0.04300
C1612       C  0.98777050  0.52517711  0.97333854    -0.09800
H1613       H  0.95822630  0.59381356  0.50818630     0.09900
H1614       H  0.01265985  0.52038728  0.58426592     0.07400
H1615       H  0.98639330  0.51292513  0.94310184     0.07300
C1616       C  0.72132899  0.93658152  0.97483269     0.04300
C1617       C  0.72388737  0.92153140  0.51457108    -0.11800
C1618       C  0.71088017  0.93578370  0.55490596     0.01800
C1619       C  0.69269078  0.96508077  0.55492721    -0.10300
C1620       C  0.69084763  0.98078989  0.51514107     0.04300
C1621       C  0.70821945  0.96611917  0.97581574    -0.09800
H1622       H  0.73542822  0.89874319  0.51407915     0.09900
H1623       H  0.67977141  0.97507875  0.58616204     0.07400
H1624       H  0.71050048  0.97716378  0.94486227     0.07300
C1625       C  0.73917514  0.89207059  0.84794342    -0.04100
C1626       C  0.78049469  0.89086888  0.87755264    -0.01300
C1627       C  0.77468232  0.90537922  0.91907038     0.03700
C1628       C  0.72831889  0.92150210  0.93121277    -0.04100
C1629       C  0.68910877  0.92516560  0.90019235    -0.01200
C1630       C  0.69614527  0.91261670  0.85778246     0.03700
C1631       C  0.83073428  0.87848052  0.86425645     0.38400
C1632       C  0.97391013  0.94132683  0.91212174     0.38400
C1633       C  0.99348405  0.92274128  0.82365832     0.36800
C1634       C  0.81705618  0.90470194  0.94875794     0.36800
N1635       N  0.96552206  0.93211758  0.79669615    -0.38000
N1636       N  0.85078095  0.90432974  0.97240487    -0.38000
N1637       N  0.93515824  0.95403222  0.92158208    -0.37500
N1638       N  0.87179921  0.86920628  0.85534374    -0.37500
C1639       C  0.72719802  0.88954475  0.67938959    -0.04100
C1640       C  0.75835063  0.91027468  0.66884804    -0.01300
C1641       C  0.75262064  0.92525101  0.62842760     0.03700
C1642       C  0.71644186  0.91984907  0.59741143    -0.04100
C1643       C  0.68682606  0.89874342  0.60628437    -0.01200
C1644       C  0.69186883  0.88372753  0.64675776     0.03700
C1645       C  0.79730725  0.91665048  0.69856270     0.38400
C1646       C  0.65025872  0.89273377  0.57364039     0.38400
C1647       C  0.65923207  0.86277645  0.65329130     0.36800
C1648       C  0.78508402  0.94599036  0.61811642     0.36800
N1649       N  0.96572245  0.84611815  0.65466612    -0.38000
N1650       N  0.81094452  0.96248577  0.60988643    -0.38000
N1651       N  0.95472499  0.88782564  0.54754057    -0.37500
N1652       N  0.82809663  0.92309741  0.72139607    -0.37500
C1653       C  0.95463360  0.59935867  0.84502530    -0.04100
C1654       C  0.99714734  0.57813760  0.85261196    -0.01300
C1655       C  0.00412380  0.56455965  0.89393069     0.03700
C1656       C  0.96579304  0.56864047  0.92644290    -0.04100
C1657       C  0.91975600  0.58551403  0.91619557    -0.01200
C1658       C  0.91379721  0.60059400  0.87567158     0.03700
C1659       C  0.03298595  0.56866940  0.81727678     0.38400
C1660       C  0.87773247  0.58653434  0.94690499     0.38400
C1661       C  0.86378085  0.61398532  0.86448048     0.36800
C1662       C  0.05190218  0.54710904  0.90330309     0.36800
N1663       N  0.82291968  0.62406083  0.85709308    -0.38000
N1664       N  0.75671045  0.53330771  0.91066390    -0.38000
N1665       N  0.84421119  0.58724211  0.97130469    -0.37500
N1666       N  0.72749525  0.55991652  0.78920249    -0.37500
C1667       C  0.96540533  0.60440350  0.67630521    -0.04100
C1668       C  0.00050605  0.61052024  0.64339335    -0.01300
C1669       C  0.00504126  0.59596859  0.60202973     0.03700
C1670       C  0.97480339  0.57528781  0.59247760    -0.04100
C1671       C  0.93784627  0.57021940  0.62317737    -0.01200
C1672       C  0.93315945  0.58436413  0.66479855     0.03700
C1673       C  0.03382577  0.63104196  0.65071498     0.38400
C1674       C  0.90388169  0.55050887  0.61135122     0.38400
C1675       C  0.89476804  0.57745006  0.69493026     0.36800
C1676       C  0.04195937  0.60181031  0.56932655     0.36800
N1677       N  0.86447781  0.57039868  0.71788189    -0.38000
N1678       N  0.07115713  0.60654134  0.54319623    -0.38000
N1679       N  0.87687777  0.53488393  0.60162224    -0.37500
N1680       N  0.06116184  0.64741240  0.65281576    -0.37500
loop_ 
_geom_bond_atom_site_label_1 
_geom_bond_atom_site_label_2 
_geom_bond_distance 
_geom_bond_site_symmetry_2 
_ccdc_geom_bond_type 
N1            C5   1.355       .  A
N1            C2   1.359       .  A
N1           C33   1.432       .  S
C2            C3   1.371       .  A
C2           C37   1.470       .  S
C3            C4   1.372       .  A
C3            H6   1.072       .  S
C4            C5   1.386       .  A
C4            H7   1.076       .  S
C5           C45   1.496       .  S
N8           C12   1.356       .  A
N8            C9   1.369       .  A
N8           C60   1.453       .  S
C9           C10   1.373       .  A
C9           C16   1.470       .  S
C10          C11   1.351       .  A
C10          H13   1.081       .  S
C11          C12   1.379       .  A
C11          H14   1.078       .  S
C12          C34   1.465       .  S
N15          C19   1.354       .  A
N15          C16   1.358       .  A
N15          C32   1.430       .  S
C16          C17   1.371       .  A
C17          C18   1.375       .  A
C17          H20   1.074       .  S
C18          C19   1.386       .  A
C18          H21   1.075       .  S
C19         C617   1.496       .  S
O22          C32   1.272       .  A
O22        Ni590   1.891       .  S
O23          C33   1.272       .  A
O23         Ni30   1.892       .  S
O24          C34   1.292       .  A
O24         Ni30   1.961       .  S
O25          C35   1.291       .  A
O25        Ni590   1.961       .  S
O26          C35   1.265       .  A
O26        Ni591   1.847       .  S
O27          C34   1.265       .  A
O27         Ni31   1.848       .  S
O28          C33   1.288       .  A
O28         Ni31   1.938       .  S
O29          C32   1.287       .  A
O29        Ni591   1.937       .  S
Ni30       O1142   1.891   1_455  S
Ni30       O1145   1.961   1_455  S
Ni30        Ni31   2.386       .  S
Ni31       O1146   1.847   1_455  S
Ni31       O1149   1.937   1_455  S
C35          C40   1.465       .  S
N36          C40   1.357       .  A
N36          C37   1.370       .  A
N36          C48   1.454       .  S
C37          C38   1.372       .  A
C38          C39   1.350       .  A
C38          H41   1.081       .  S
C39          C40   1.380       .  A
C39          H42   1.077       .  S
C43          C49   1.543       .  S
C43          C47   1.552       .  S
C43         C604   1.534       .  S
C43         C113   1.560       .  S
C44        C1163   1.534   1_455  S
C44          H51   1.087       .  S
C44          C45   1.362       .  D
C45        C1166   1.554   1_455  S
C46          C50   1.547       .  S
C46          C48   1.554       .  S
C46         C605   1.554       .  S
C46          H52   1.106       .  S
C47          H53   1.077       .  S
C47          C48   1.365       .  D
C49          H54   1.084       .  S
C49          C50   1.371       .  D
C50         C127   1.521       .  S
C55          C56   1.536       .  S
C55          C61   1.542       .  S
C55          C59   1.547       .  S
C55          C85   1.555       .  S
C56        H1183   1.087   1_455  S
C56          C57   1.361       .  D
C57        C1139   1.496   1_455  S
C57          C58   1.554       .  S
C58          C62   1.549       .  S
C58          C60   1.557       .  S
C58          H64   1.107       .  S
C59          H65   1.078       .  S
C59          C60   1.363       .  D
C61          H66   1.084       .  S
C61          C62   1.370       .  D
C62          C99   1.523       .  S
H63         C616   1.087       .  S
C67          C72   1.404       .  A
C67         C208   1.398       .  A
C67         C116   1.494       .  S
C68          C69   1.399       .  A
C68         C207   1.398   1_554  A
C68          H73   1.084       .  S
C69          C70   1.404       .  A
C69         C130   1.485       .  S
C70          C71   1.409       .  A
C70          H74   1.080       .  S
C71         C212   1.415   1_554  A
C71         C920   1.507   1_545  S
C72         C211   1.415       .  A
C72          H75   1.080       .  S
C76          C81   1.399       .  A
C76         C217   1.397       .  A
C76          C88   1.486       .  S
C77          C78   1.400       .  A
C77         C216   1.397   1_554  A
C77          H82   1.084       .  S
C78          C79   1.408       .  A
C78         C102   1.490       .  S
C79          C80   1.415       .  A
C79          H83   1.080       .  S
C80         C221   1.408   1_554  A
C80        C1471   1.507       .  S
C81         C220   1.408       .  A
C81          H84   1.080       .  S
C85          C86   1.427       .  A
C85          C90   1.427       .  A
C86          C87   1.417       .  A
C86          C91   1.446       .  S
C87          C88   1.408       .  A
C87          C94   1.453       .  S
C88          C89   1.408       .  A
C89          C90   1.403       .  A
C89        C1212   1.455   1_455  S
C90        C1213   1.452   1_455  S
C91          N98   1.157       .  T
C92         C649   1.455       .  S
C92          N97   1.157       .  T
C93         C650   1.452       .  S
C93          N95   1.157       .  T
C94          N96   1.157       .  T
C99         C100   1.430       .  A
C99         C104   1.428       .  A
C100        C101   1.413       .  A
C100        C105   1.451       .  S
C101        C102   1.406       .  A
C101        C108   1.454       .  S
C102        C103   1.406       .  A
C103        C104   1.415       .  A
C103        C106   1.455   1_455  S
C104        C107   1.445   1_455  S
C105        N112   1.158       .  T
C106       N1231   1.157       .  T
C107       N1229   1.156       .  T
C108        N110   1.157       .  T
N109        C667   1.156       .  T
N111        C666   1.157       .  T
C113        C114   1.430       .  A
C113        C118   1.426       .  A
C114        C115   1.407       .  A
C114        C119   1.453       .  S
C115        C116   1.409       .  A
C115        C122   1.454       .  S
C116        C117   1.411       .  A
C117        C118   1.419       .  A
C117        C120   1.453       .  S
C118        C121   1.446       .  S
C119        N686   1.157       .  T
C120        N125   1.157       .  T
C121        N123   1.157       .  T
C122        N684   1.158       .  T
N124       C1242   1.158       .  T
N126       C1239   1.157       .  T
C127        C128   1.429       .  A
C127        C132   1.431       .  A
C128        C129   1.414       .  A
C128        C133   1.445       .  S
C129        C130   1.403       .  A
C129        C136   1.455       .  S
C130        C131   1.404       .  A
C131        C132   1.412       .  A
C131        C134   1.455       .  S
C132        C135   1.450       .  S
C133        N140   1.156       .  T
C134        N139   1.157       .  T
C135        N137   1.158       .  T
C136        N138   1.157       .  T
N141        C145   1.355       .  A
N141        C142   1.359       .  A
N141        C173   1.432       .  S
C142        C143   1.371       .  A
C142        C177   1.470       .  S
C143        C144   1.372       .  A
C143        H146   1.072       .  S
C144        C145   1.386       .  A
C144        H147   1.076       .  S
C145        C185   1.496       .  S
N148        C152   1.356       .  A
N148        C149   1.369       .  A
N148        C200   1.453       .  S
C149        C150   1.373       .  A
C149        C156   1.470       .  S
C150        C151   1.351       .  A
C150        H153   1.081       .  S
C151        C152   1.379       .  A
C151        H154   1.078       .  S
C152        C174   1.465       .  S
N155        C159   1.354       .  A
N155        C156   1.358       .  A
N155        C172   1.430       .  S
C156        C157   1.371       .  A
C157        C158   1.375       .  A
C157        H160   1.074       .  S
C158        C159   1.386       .  A
C158        H161   1.075       .  S
C159        C757   1.496       .  S
O162        C172   1.272       .  A
O162       Ni730   1.891       .  S
O163        C173   1.272       .  A
O163       Ni170   1.892       .  S
O164        C174   1.292       .  A
O164       Ni170   1.961       .  S
O165        C175   1.291       .  A
O165       Ni730   1.961       .  S
O166        C175   1.265       .  A
O166       Ni731   1.847       .  S
O167        C174   1.265       .  A
O167       Ni171   1.848       .  S
O168        C173   1.288       .  A
O168       Ni171   1.938       .  S
O169        C172   1.287       .  A
O169       Ni731   1.937       .  S
Ni170      O1282   1.891   1_455  S
Ni170      O1285   1.961   1_455  S
Ni170      Ni171   2.386       .  S
Ni171      O1286   1.847   1_455  S
Ni171      O1289   1.937   1_455  S
C175        C180   1.465       .  S
N176        C180   1.357       .  A
N176        C177   1.370       .  A
N176        C188   1.454       .  S
C177        C178   1.372       .  A
C178        C179   1.350       .  A
C178        H181   1.081       .  S
C179        C180   1.380       .  A
C179        H182   1.077       .  S
C183        C744   1.534       .  S
C183        C189   1.543       .  S
C183        C187   1.552       .  S
C183        C253   1.560       .  S
C184       C1303   1.534   1_455  S
C184        H191   1.087       .  S
C184        C185   1.362       .  D
C185       C1306   1.554   1_455  S
C186        C745   1.554       .  S
C186        C190   1.547       .  S
C186        C188   1.554       .  S
C186        H192   1.106       .  S
C187        H193   1.077       .  S
C187        C188   1.365       .  D
C189        H194   1.084       .  S
C189        C190   1.371       .  D
C190        C267   1.521       .  S
C195        C196   1.536       .  S
C195        C201   1.542       .  S
C195        C199   1.547       .  S
C195        C225   1.555       .  S
C196       H1323   1.087   1_455  S
C196        C197   1.361       .  D
C197       C1279   1.496   1_455  S
C197        C198   1.554       .  S
C198        C202   1.549       .  S
C198        C200   1.557       .  S
C198        H204   1.107       .  S
C199        H205   1.078       .  S
C199        C200   1.363       .  D
C201        H206   1.084       .  S
C201        C202   1.370       .  D
C202        C239   1.523       .  S
H203        C756   1.087       .  S
C207        C212   1.404       .  A
C207        C256   1.494       .  S
C208        C209   1.399       .  A
C208        H213   1.084       .  S
C209        C210   1.404       .  A
C209        C270   1.485       .  S
C210        C211   1.409       .  A
C210        H214   1.080       .  S
C211       C1060   1.507   1_545  S
C212        H215   1.080       .  S
C216        C221   1.399       .  A
C216        C228   1.486       .  S
C217        C218   1.400       .  A
C217        H222   1.084       .  S
C218        C219   1.408       .  A
C218        C242   1.490       .  S
C219        C220   1.415       .  A
C219        H223   1.080       .  S
C220       C1611   1.507       .  S
C221        H224   1.080       .  S
C225        C226   1.427       .  A
C225        C230   1.427       .  A
C226        C227   1.417       .  A
C226        C231   1.446       .  S
C227        C228   1.408       .  A
C227        C234   1.453       .  S
C228        C229   1.408       .  A
C229        C230   1.403       .  A
C229       C1352   1.455   1_455  S
C230       C1353   1.452   1_455  S
C231        N238   1.157       .  T
C232        C789   1.455       .  S
C232        N237   1.157       .  T
C233        C790   1.452       .  S
C233        N235   1.157       .  T
C234        N236   1.157       .  T
C239        C240   1.430       .  A
C239        C244   1.428       .  A
C240        C241   1.413       .  A
C240        C245   1.451       .  S
C241        C242   1.406       .  A
C241        C248   1.454       .  S
C242        C243   1.406       .  A
C243        C244   1.415       .  A
C243        C246   1.455   1_455  S
C244        C247   1.445   1_455  S
C245        N252   1.158       .  T
C246       N1371   1.157       .  T
C247       N1369   1.156       .  T
C248        N250   1.157       .  T
N249        C807   1.156       .  T
N251        C806   1.157       .  T
C253        C254   1.430       .  A
C253        C258   1.426       .  A
C254        C255   1.407       .  A
C254        C259   1.453       .  S
C255        C256   1.409       .  A
C255        C262   1.454       .  S
C256        C257   1.411       .  A
C257        C258   1.419       .  A
C257        C260   1.453       .  S
C258        C261   1.446       .  S
C259        N826   1.157       .  T
C260        N265   1.157       .  T
C261        N263   1.157       .  T
C262        N824   1.158       .  T
N264       C1382   1.158       .  T
N266       C1379   1.157       .  T
C267        C268   1.429       .  A
C267        C272   1.431       .  A
C268        C269   1.414       .  A
C268        C273   1.445       .  S
C269        C270   1.403       .  A
C269        C276   1.455       .  S
C270        C271   1.404       .  A
C271        C272   1.412       .  A
C271        C274   1.455       .  S
C272        C275   1.450       .  S
C273        N280   1.156       .  T
C274        N279   1.157       .  T
C275        N277   1.158       .  T
C276        N278   1.157       .  T
N281        C285   1.355       .  A
N281        C282   1.359       .  A
N281        C313   1.432       .  S
C282        C283   1.371       .  A
C282        C317   1.470       .  S
C283        C284   1.372       .  A
C283        H286   1.072       .  S
C284        C285   1.386       .  A
C284        H287   1.076       .  S
C285        C325   1.496       .  S
N288        C292   1.356       .  A
N288        C289   1.369       .  A
N288        C340   1.453       .  S
C289        C290   1.373       .  A
C289        C296   1.470       .  S
C290        C291   1.351       .  A
C290        H293   1.081       .  S
C291        C292   1.379       .  A
C291        H294   1.078       .  S
C292        C314   1.465       .  S
N295        C299   1.354       .  A
N295        C296   1.358       .  A
N295        C312   1.430       .  S
C296        C297   1.371       .  A
C297        C298   1.375       .  A
C297        H300   1.074       .  S
C298        C299   1.386       .  A
C298        H301   1.075       .  S
C299        C897   1.496       .  S
O302        C312   1.272       .  A
O302       Ni870   1.891       .  S
O303        C313   1.272       .  A
O303       Ni310   1.892       .  S
O304        C314   1.292       .  A
O304       Ni310   1.961       .  S
O305        C315   1.291       .  A
O305       Ni870   1.961       .  S
O306        C315   1.265       .  A
O306       Ni871   1.847       .  S
O307        C314   1.265       .  A
O307       Ni311   1.848       .  S
O308        C313   1.288       .  A
O308       Ni311   1.938       .  S
O309        C312   1.287       .  A
O309       Ni871   1.937       .  S
Ni310      O1422   1.891   1_455  S
Ni310      O1425   1.961   1_455  S
Ni310      Ni311   2.386       .  S
Ni311      O1426   1.847   1_455  S
Ni311      O1429   1.937   1_455  S
C315        C320   1.465       .  S
N316        C320   1.357       .  A
N316        C317   1.370       .  A
N316        C328   1.454       .  S
C317        C318   1.372       .  A
C318        C319   1.350       .  A
C318        H321   1.081       .  S
C319        C320   1.380       .  A
C319        H322   1.077       .  S
C323        C884   1.534       .  S
C323        C329   1.543       .  S
C323        C327   1.552       .  S
C323        C393   1.560       .  S
C324       C1443   1.534   1_455  S
C324        H331   1.087       .  S
C324        C325   1.362       .  D
C325       C1446   1.554   1_455  S
C326        C885   1.554       .  S
C326        C330   1.547       .  S
C326        C328   1.554       .  S
C326        H332   1.106       .  S
C327        H333   1.077       .  S
C327        C328   1.365       .  D
C329        H334   1.084       .  S
C329        C330   1.371       .  D
C330        C407   1.521       .  S
C335        C336   1.536       .  S
C335        C341   1.542       .  S
C335        C339   1.547       .  S
C335        C365   1.555       .  S
C336       H1463   1.087   1_455  S
C336        C337   1.361       .  D
C337       C1419   1.496   1_455  S
C337        C338   1.554       .  S
C338        C342   1.549       .  S
C338        C340   1.557       .  S
C338        H344   1.107       .  S
C339        H345   1.078       .  S
C339        C340   1.363       .  D
C341        H346   1.084       .  S
C341        C342   1.370       .  D
C342        C379   1.523       .  S
H343        C896   1.087       .  S
C347        C488   1.398       .  A
C347        C352   1.404       .  A
C347        C396   1.494       .  S
C348        C487   1.398   1_554  A
C348        C349   1.399       .  A
C348        H353   1.084       .  S
C349        C350   1.404       .  A
C349        C410   1.485       .  S
C350        C351   1.409       .  A
C350        H354   1.080       .  S
C351        C492   1.415   1_554  A
C351        C640   1.507       .  S
C352        C491   1.415       .  A
C352        H355   1.080       .  S
C356        C497   1.397       .  A
C356        C361   1.399       .  A
C356        C368   1.486       .  S
C357        C496   1.397   1_554  A
C357        C358   1.400       .  A
C357        H362   1.084       .  S
C358        C359   1.408       .  A
C358        C382   1.490       .  S
C359        C360   1.415       .  A
C359        H363   1.080       .  S
C360        C501   1.408   1_554  A
C360       C1191   1.507   1_565  S
C361        C500   1.408       .  A
C361        H364   1.080       .  S
C365        C366   1.427       .  A
C365        C370   1.427       .  A
C366        C367   1.417       .  A
C366        C371   1.446       .  S
C367        C368   1.408       .  A
C367        C374   1.453       .  S
C368        C369   1.408       .  A
C369        C370   1.403       .  A
C369       C1492   1.455   1_455  S
C370       C1493   1.452   1_455  S
C371        N378   1.157       .  T
C372        C929   1.455       .  S
C372        N377   1.157       .  T
C373        C930   1.452       .  S
C373        N375   1.157       .  T
C374        N376   1.157       .  T
C379        C380   1.430       .  A
C379        C384   1.428       .  A
C380        C381   1.413       .  A
C380        C385   1.451       .  S
C381        C382   1.406       .  A
C381        C388   1.454       .  S
C382        C383   1.406       .  A
C383        C384   1.415       .  A
C383        C386   1.455   1_455  S
C384        C387   1.445   1_455  S
C385        N392   1.158       .  T
C386       N1511   1.157       .  T
C387       N1509   1.156       .  T
C388        N390   1.157       .  T
N389        C947   1.156       .  T
N391        C946   1.157       .  T
C393        C394   1.430       .  A
C393        C398   1.426       .  A
C394        C395   1.407       .  A
C394        C399   1.453       .  S
C395        C396   1.409       .  A
C395        C402   1.454       .  S
C396        C397   1.411       .  A
C397        C398   1.419       .  A
C397        C400   1.453       .  S
C398        C401   1.446       .  S
C399        N966   1.157       .  T
C400        N405   1.157       .  T
C401        N403   1.157       .  T
C402        N964   1.158       .  T
N404       C1522   1.158       .  T
N406       C1519   1.157       .  T
C407        C408   1.429       .  A
C407        C412   1.431       .  A
C408        C409   1.414       .  A
C408        C413   1.445       .  S
C409        C410   1.403       .  A
C409        C416   1.455       .  S
C410        C411   1.404       .  A
C411        C412   1.412       .  A
C411        C414   1.455       .  S
C412        C415   1.450       .  S
C413        N420   1.156       .  T
C414        N419   1.157       .  T
C415        N417   1.158       .  T
C416        N418   1.157       .  T
N421        C425   1.355       .  A
N421        C422   1.359       .  A
N421        C453   1.432       .  S
C422        C423   1.371       .  A
C422        C457   1.470       .  S
C423        C424   1.372       .  A
C423        H426   1.072       .  S
C424        C425   1.386       .  A
C424        H427   1.076       .  S
C425        C465   1.496       .  S
N428        C432   1.356       .  A
N428        C429   1.369       .  A
N428        C480   1.453       .  S
C429        C430   1.373       .  A
C429        C436   1.470       .  S
C430        C431   1.351       .  A
C430        H433   1.081       .  S
C431        C432   1.379       .  A
C431        H434   1.078       .  S
C432        C454   1.465       .  S
N435        C439   1.354       .  A
N435        C436   1.358       .  A
N435        C452   1.430       .  S
C436        C437   1.371       .  A
C437        C438   1.375       .  A
C437        H440   1.074       .  S
C438        C439   1.386       .  A
C438        H441   1.075       .  S
C439       C1037   1.496       .  S
O442        C452   1.272       .  A
O442      Ni1010   1.891       .  S
O443        C453   1.272       .  A
O443       Ni450   1.892       .  S
O444        C454   1.292       .  A
O444       Ni450   1.961       .  S
O445        C455   1.291       .  A
O445      Ni1010   1.961       .  S
O446        C455   1.265       .  A
O446      Ni1011   1.847       .  S
O447        C454   1.265       .  A
O447       Ni451   1.848       .  S
O448        C453   1.288       .  A
O448       Ni451   1.938       .  S
O449        C452   1.287       .  A
O449      Ni1011   1.937       .  S
Ni450      O1562   1.891   1_455  S
Ni450      O1565   1.961   1_455  S
Ni450      Ni451   2.386       .  S
Ni451      O1566   1.847   1_455  S
Ni451      O1569   1.937   1_455  S
C455        C460   1.465       .  S
N456        C460   1.357       .  A
N456        C457   1.370       .  A
N456        C468   1.454       .  S
C457        C458   1.372       .  A
C458        C459   1.350       .  A
C458        H461   1.081       .  S
C459        C460   1.380       .  A
C459        H462   1.077       .  S
C463       C1024   1.534       .  S
C463        C469   1.543       .  S
C463        C467   1.552       .  S
C463        C533   1.560       .  S
C464       C1583   1.534   1_455  S
C464        H471   1.087       .  S
C464        C465   1.362       .  D
C465       C1586   1.554   1_455  S
C466       C1025   1.554       .  S
C466        C470   1.547       .  S
C466        C468   1.554       .  S
C466        H472   1.106       .  S
C467        H473   1.077       .  S
C467        C468   1.365       .  D
C469        H474   1.084       .  S
C469        C470   1.371       .  D
C470        C547   1.521       .  S
C475        C476   1.536       .  S
C475        C481   1.542       .  S
C475        C479   1.547       .  S
C475        C505   1.555       .  S
C476       H1603   1.087   1_455  S
C476        C477   1.362       .  D
C477       C1559   1.496   1_455  S
C477        C478   1.554       .  S
C478        C482   1.549       .  S
C478        C480   1.557       .  S
C478        H484   1.107       .  S
C479        H485   1.078       .  S
C479        C480   1.363       .  D
C481        H486   1.084       .  S
C481        C482   1.370       .  D
C482        C519   1.523       .  S
H483       C1036   1.087       .  S
C487        C492   1.404       .  A
C487        C536   1.494       .  S
C488        C489   1.399       .  A
C488        H493   1.084       .  S
C489        C490   1.404       .  A
C489        C550   1.485       .  S
C490        C491   1.409       .  A
C490        H494   1.080       .  S
C491        C780   1.507       .  S
C492        H495   1.080       .  S
C496        C501   1.399       .  A
C496        C508   1.486       .  S
C497        C498   1.400       .  A
C497        H502   1.084       .  S
C498        C499   1.408       .  A
C498        C522   1.490       .  S
C499        C500   1.415       .  A
C499        H503   1.080       .  S
C500       C1331   1.507   1_565  S
C501        H504   1.080       .  S
C505        C506   1.427       .  A
C505        C510   1.427       .  A
C506        C507   1.417       .  A
C506        C511   1.446       .  S
C507        C508   1.408       .  A
C507        C514   1.453       .  S
C508        C509   1.408       .  A
C509        C510   1.403       .  A
C509       C1632   1.455   1_455  S
C510       C1633   1.452   1_455  S
C511        N518   1.157       .  T
C512       C1069   1.455       .  S
C512        N517   1.157       .  T
C513       C1070   1.452       .  S
C513        N515   1.157       .  T
C514        N516   1.157       .  T
C519        C520   1.430       .  A
C519        C524   1.428       .  A
C520        C521   1.413       .  A
C520        C525   1.451       .  S
C521        C522   1.406       .  A
C521        C528   1.454       .  S
C522        C523   1.406       .  A
C523        C524   1.415       .  A
C523        C526   1.455   1_455  S
C524        C527   1.445   1_455  S
C525        N532   1.158       .  T
C526       N1651   1.157       .  T
C527       N1649   1.156       .  T
C528        N530   1.157       .  T
N529       C1087   1.156       .  T
N531       C1086   1.157       .  T
C533        C534   1.430       .  A
C533        C538   1.426       .  A
C534        C535   1.407       .  A
C534        C539   1.453       .  S
C535        C536   1.409       .  A
C535        C542   1.454       .  S
C536        C537   1.411       .  A
C537        C538   1.419       .  A
C537        C540   1.453       .  S
C538        C541   1.446       .  S
C539       N1106   1.157       .  T
C540        N545   1.157       .  T
C541        N543   1.157       .  T
C542       N1104   1.158       .  T
N544       C1662   1.158       .  T
N546       C1659   1.157       .  T
C547        C548   1.429       .  A
C547        C552   1.431       .  A
C548        C549   1.414       .  A
C548        C553   1.445       .  S
C549        C550   1.403       .  A
C549        C556   1.455       .  S
C550        C551   1.404       .  A
C551        C552   1.412       .  A
C551        C554   1.455       .  S
C552        C555   1.450       .  S
C553        N560   1.156       .  T
C554        N559   1.157       .  T
C555        N557   1.158       .  T
C556        N558   1.157       .  T
N561        C565   1.355       .  A
N561        C562   1.359       .  A
N561        C593   1.432       .  S
C562        C563   1.371       .  A
C562        C597   1.470       .  S
C563        C564   1.372       .  A
C563        H566   1.072       .  S
C564        C565   1.386       .  A
C564        H567   1.076       .  S
C565        C605   1.496       .  S
N568        C572   1.356       .  A
N568        C569   1.369       .  A
N568        C620   1.453       .  S
C569        C570   1.373       .  A
C569        C576   1.470       .  S
C570        C571   1.351       .  A
C570        H573   1.081       .  S
C571        C572   1.379       .  A
C571        H574   1.078       .  S
C572        C594   1.465       .  S
N575        C579   1.354       .  A
N575        C576   1.358       .  A
N575        C592   1.430       .  S
C576        C577   1.371       .  A
C577        C578   1.375       .  A
C577        H580   1.074       .  S
C578        C579   1.386       .  A
C578        H581   1.075       .  S
C579       C1177   1.496       .  S
O582        C592   1.272       .  A
O582      Ni1150   1.891       .  S
O583        C593   1.272       .  A
O583       Ni590   1.892       .  S
O584        C594   1.292       .  A
O584       Ni590   1.961       .  S
O585        C595   1.291       .  A
O585      Ni1150   1.961       .  S
O586        C595   1.265       .  A
O586      Ni1151   1.847       .  S
O587        C594   1.265       .  A
O587       Ni591   1.848       .  S
O588        C593   1.288       .  A
O588       Ni591   1.938       .  S
O589        C592   1.287       .  A
O589      Ni1151   1.937       .  S
Ni590      Ni591   2.386       .  S
C595        C600   1.465       .  S
N596        C600   1.357       .  A
N596        C597   1.370       .  A
N596        C608   1.454       .  S
C597        C598   1.372       .  A
C598        C599   1.350       .  A
C598        H601   1.081       .  S
C599        C600   1.380       .  A
C599        H602   1.077       .  S
C603       C1164   1.534       .  S
C603        C609   1.543       .  S
C603        C607   1.552       .  S
C603        C673   1.560       .  S
C604        H611   1.087       .  S
C604        C605   1.362       .  D
C606       C1165   1.554       .  S
C606        C610   1.547       .  S
C606        C608   1.554       .  S
C606        H612   1.106       .  S
C607        H613   1.077       .  S
C607        C608   1.365       .  D
C609        H614   1.084       .  S
C609        C610   1.371       .  D
C610        C687   1.521       .  S
C615        C616   1.536       .  S
C615        C621   1.542       .  S
C615        C619   1.547       .  S
C615        C645   1.555       .  S
C616        C617   1.361       .  D
C617        C618   1.554       .  S
C618        C622   1.549       .  S
C618        C620   1.557       .  S
C618        H624   1.107       .  S
C619        H625   1.078       .  S
C619        C620   1.363       .  D
C621        H626   1.084       .  S
C621        C622   1.370       .  D
C622        C659   1.523       .  S
H623       C1176   1.087       .  S
C627        C768   1.398       .  A
C627        C632   1.404       .  A
C627        C676   1.494       .  S
C628        C767   1.398   1_554  A
C628        C629   1.399       .  A
C628        H633   1.084       .  S
C629        C630   1.404       .  A
C629        C690   1.485       .  S
C630        C631   1.409       .  A
C630        H634   1.080       .  S
C631        C772   1.415   1_554  A
C631       C1480   1.507   1_545  S
C632        C771   1.415       .  A
C632        H635   1.080       .  S
C636        C777   1.397       .  A
C636        C641   1.399       .  A
C636        C648   1.486       .  S
C637        C776   1.397   1_554  A
C637        C638   1.400       .  A
C637        H642   1.084       .  S
C638        C639   1.408       .  A
C638        C662   1.490       .  S
C639        C640   1.415       .  A
C639        H643   1.080       .  S
C640        C781   1.408   1_554  A
C641        C780   1.408       .  A
C641        H644   1.080       .  S
C645        C646   1.427       .  A
C645        C650   1.427       .  A
C646        C647   1.417       .  A
C646        C651   1.446       .  S
C647        C648   1.408       .  A
C647        C654   1.453       .  S
C648        C649   1.408       .  A
C649        C650   1.403       .  A
C651        N658   1.157       .  T
C652       C1209   1.455       .  S
C652        N657   1.157       .  T
C653       C1210   1.452       .  S
C653        N655   1.157       .  T
C654        N656   1.157       .  T
C659        C660   1.430       .  A
C659        C664   1.428       .  A
C660        C661   1.413       .  A
C660        C665   1.451       .  S
C661        C662   1.406       .  A
C661        C668   1.454       .  S
C662        C663   1.406       .  A
C663        C664   1.415       .  A
C663        C666   1.455       .  S
C664        C667   1.445       .  S
C665        N672   1.158       .  T
C668        N670   1.157       .  T
N669       C1227   1.156       .  T
N671       C1226   1.157       .  T
C673        C674   1.430       .  A
C673        C678   1.426       .  A
C674        C675   1.407       .  A
C674        C679   1.453       .  S
C675        C676   1.409       .  A
C675        C682   1.454       .  S
C676        C677   1.411       .  A
C677        C678   1.419       .  A
C677        C680   1.453       .  S
C678        C681   1.446       .  S
C679       N1246   1.157       .  T
C680        N685   1.157       .  T
C681        N683   1.157       .  T
C682       N1244   1.158       .  T
C687        C688   1.429       .  A
C687        C692   1.431       .  A
C688        C689   1.414       .  A
C688        C693   1.445       .  S
C689        C690   1.403       .  A
C689        C696   1.455       .  S
C690        C691   1.404       .  A
C691        C692   1.412       .  A
C691        C694   1.455       .  S
C692        C695   1.450       .  S
C693        N700   1.156       .  T
C694        N699   1.157       .  T
C695        N697   1.158       .  T
C696        N698   1.157       .  T
N701        C705   1.355       .  A
N701        C702   1.359       .  A
N701        C733   1.432       .  S
C702        C703   1.371       .  A
C702        C737   1.470       .  S
C703        C704   1.372       .  A
C703        H706   1.072       .  S
C704        C705   1.386       .  A
C704        H707   1.076       .  S
C705        C745   1.496       .  S
N708        C712   1.356       .  A
N708        C709   1.369       .  A
N708        C760   1.453       .  S
C709        C710   1.373       .  A
C709        C716   1.470       .  S
C710        C711   1.351       .  A
C710        H713   1.081       .  S
C711        C712   1.379       .  A
C711        H714   1.078       .  S
C712        C734   1.465       .  S
N715        C719   1.354       .  A
N715        C716   1.358       .  A
N715        C732   1.430       .  S
C716        C717   1.371       .  A
C717        C718   1.375       .  A
C717        H720   1.074       .  S
C718        C719   1.386       .  A
C718        H721   1.075       .  S
C719       C1317   1.496       .  S
O722        C732   1.272       .  A
O722      Ni1290   1.891       .  S
O723        C733   1.272       .  A
O723       Ni730   1.892       .  S
O724        C734   1.292       .  A
O724       Ni730   1.961       .  S
O725        C735   1.291       .  A
O725      Ni1290   1.961       .  S
O726        C735   1.265       .  A
O726      Ni1291   1.847       .  S
O727        C734   1.265       .  A
O727       Ni731   1.848       .  S
O728        C733   1.288       .  A
O728       Ni731   1.938       .  S
O729        C732   1.287       .  A
O729      Ni1291   1.937       .  S
Ni730      Ni731   2.386       .  S
C735        C740   1.465       .  S
N736        C740   1.357       .  A
N736        C737   1.370       .  A
N736        C748   1.454       .  S
C737        C738   1.372       .  A
C738        C739   1.350       .  A
C738        H741   1.081       .  S
C739        C740   1.380       .  A
C739        H742   1.077       .  S
C743       C1304   1.534       .  S
C743        C749   1.543       .  S
C743        C747   1.552       .  S
C743        C813   1.560       .  S
C744        H751   1.087       .  S
C744        C745   1.362       .  D
C746       C1305   1.554       .  S
C746        C750   1.547       .  S
C746        C748   1.554       .  S
C746        H752   1.106       .  S
C747        H753   1.077       .  S
C747        C748   1.365       .  D
C749        H754   1.084       .  S
C749        C750   1.371       .  D
C750        C827   1.521       .  S
C755        C756   1.536       .  S
C755        C761   1.542       .  S
C755        C759   1.547       .  S
C755        C785   1.555       .  S
C756        C757   1.361       .  D
C757        C758   1.554       .  S
C758        C762   1.549       .  S
C758        C760   1.557       .  S
C758        H764   1.107       .  S
C759        H765   1.078       .  S
C759        C760   1.363       .  D
C761        H766   1.084       .  S
C761        C762   1.370       .  D
C762        C799   1.523       .  S
H763       C1316   1.087       .  S
C767        C772   1.404       .  A
C767        C816   1.494       .  S
C768        C769   1.399       .  A
C768        H773   1.084       .  S
C769        C770   1.404       .  A
C769        C830   1.485       .  S
C770        C771   1.409       .  A
C770        H774   1.080       .  S
C771       C1620   1.507   1_545  S
C772        H775   1.080       .  S
C776        C781   1.399       .  A
C776        C788   1.486       .  S
C777        C778   1.400       .  A
C777        H782   1.084       .  S
C778        C779   1.408       .  A
C778        C802   1.490       .  S
C779        C780   1.415       .  A
C779        H783   1.080       .  S
C781        H784   1.080       .  S
C785        C786   1.427       .  A
C785        C790   1.427       .  A
C786        C787   1.417       .  A
C786        C791   1.446       .  S
C787        C788   1.408       .  A
C787        C794   1.453       .  S
C788        C789   1.408       .  A
C789        C790   1.403       .  A
C791        N798   1.157       .  T
C792       C1349   1.455       .  S
C792        N797   1.157       .  T
C793       C1350   1.452       .  S
C793        N795   1.157       .  T
C794        N796   1.157       .  T
C799        C800   1.430       .  A
C799        C804   1.428       .  A
C800        C801   1.413       .  A
C800        C805   1.451       .  S
C801        C802   1.406       .  A
C801        C808   1.454       .  S
C802        C803   1.406       .  A
C803        C804   1.415       .  A
C803        C806   1.455       .  S
C804        C807   1.445       .  S
C805        N812   1.158       .  T
C808        N810   1.157       .  T
N809       C1367   1.156       .  T
N811       C1366   1.157       .  T
C813        C814   1.430       .  A
C813        C818   1.426       .  A
C814        C815   1.407       .  A
C814        C819   1.453       .  S
C815        C816   1.409       .  A
C815        C822   1.454       .  S
C816        C817   1.411       .  A
C817        C818   1.419       .  A
C817        C820   1.453       .  S
C818        C821   1.446       .  S
C819       N1386   1.157       .  T
C820        N825   1.157       .  T
C821        N823   1.157       .  T
C822       N1384   1.158       .  T
C827        C828   1.429       .  A
C827        C832   1.431       .  A
C828        C829   1.414       .  A
C828        C833   1.445       .  S
C829        C830   1.403       .  A
C829        C836   1.455       .  S
C830        C831   1.404       .  A
C831        C832   1.412       .  A
C831        C834   1.455       .  S
C832        C835   1.450       .  S
C833        N840   1.156       .  T
C834        N839   1.157       .  T
C835        N837   1.158       .  T
C836        N838   1.157       .  T
N841        C845   1.355       .  A
N841        C842   1.359       .  A
N841        C873   1.432       .  S
C842        C843   1.371       .  A
C842        C877   1.470       .  S
C843        C844   1.372       .  A
C843        H846   1.072       .  S
C844        C845   1.386       .  A
C844        H847   1.076       .  S
C845        C885   1.496       .  S
N848        C852   1.356       .  A
N848        C849   1.369       .  A
N848        C900   1.453       .  S
C849        C850   1.373       .  A
C849        C856   1.470       .  S
C850        C851   1.351       .  A
C850        H853   1.081       .  S
C851        C852   1.379       .  A
C851        H854   1.078       .  S
C852        C874   1.465       .  S
N855        C859   1.354       .  A
N855        C856   1.358       .  A
N855        C872   1.430       .  S
C856        C857   1.371       .  A
C857        C858   1.375       .  A
C857        H860   1.074       .  S
C858        C859   1.386       .  A
C858        H861   1.075       .  S
C859       C1457   1.496       .  S
O862        C872   1.272       .  A
O862      Ni1430   1.891       .  S
O863        C873   1.272       .  A
O863       Ni870   1.892       .  S
O864        C874   1.292       .  A
O864       Ni870   1.961       .  S
O865        C875   1.291       .  A
O865      Ni1430   1.961       .  S
O866        C875   1.265       .  A
O866      Ni1431   1.847       .  S
O867        C874   1.265       .  A
O867       Ni871   1.848       .  S
O868        C873   1.288       .  A
O868       Ni871   1.938       .  S
O869        C872   1.287       .  A
O869      Ni1431   1.937       .  S
Ni870      Ni871   2.386       .  S
C875        C880   1.465       .  S
N876        C880   1.357       .  A
N876        C877   1.370       .  A
N876        C888   1.454       .  S
C877        C878   1.372       .  A
C878        C879   1.350       .  A
C878        H881   1.081       .  S
C879        C880   1.380       .  A
C879        H882   1.077       .  S
C883       C1444   1.534       .  S
C883        C889   1.543       .  S
C883        C887   1.552       .  S
C883        C953   1.560       .  S
C884        H891   1.087       .  S
C884        C885   1.362       .  D
C886       C1445   1.554       .  S
C886        C890   1.547       .  S
C886        C888   1.554       .  S
C886        H892   1.106       .  S
C887        H893   1.077       .  S
C887        C888   1.365       .  D
C889        H894   1.084       .  S
C889        C890   1.371       .  D
C890        C967   1.521       .  S
C895        C896   1.536       .  S
C895        C901   1.542       .  S
C895        C899   1.547       .  S
C895        C925   1.555       .  S
C896        C897   1.361       .  D
C897        C898   1.554       .  S
C898        C902   1.549       .  S
C898        C900   1.557       .  S
C898        H904   1.107       .  S
C899        H905   1.078       .  S
C899        C900   1.363       .  D
C901        H906   1.084       .  S
C901        C902   1.370       .  D
C902        C939   1.523       .  S
H903       C1456   1.087       .  S
C907       C1048   1.398       .  A
C907        C912   1.404       .  A
C907        C956   1.494       .  S
C908       C1047   1.398   1_554  A
C908        C909   1.399       .  A
C908        H913   1.084       .  S
C909        C910   1.404       .  A
C909        C970   1.485       .  S
C910        C911   1.409       .  A
C910        H914   1.080       .  S
C911       C1052   1.415   1_554  A
C911       C1200   1.507       .  S
C912       C1051   1.415       .  A
C912        H915   1.080       .  S
C916       C1057   1.397       .  A
C916        C921   1.399       .  A
C916        C928   1.486       .  S
C917       C1056   1.397   1_554  A
C917        C918   1.400       .  A
C917        H922   1.084       .  S
C918        C919   1.408       .  A
C918        C942   1.490       .  S
C919        C920   1.415       .  A
C919        H923   1.080       .  S
C920       C1061   1.408   1_554  A
C921       C1060   1.408       .  A
C921        H924   1.080       .  S
C925        C926   1.427       .  A
C925        C930   1.427       .  A
C926        C927   1.417       .  A
C926        C931   1.446       .  S
C927        C928   1.408       .  A
C927        C934   1.453       .  S
C928        C929   1.408       .  A
C929        C930   1.403       .  A
C931        N938   1.157       .  T
C932       C1489   1.455       .  S
C932        N937   1.157       .  T
C933       C1490   1.452       .  S
C933        N935   1.157       .  T
C934        N936   1.157       .  T
C939        C940   1.430       .  A
C939        C944   1.428       .  A
C940        C941   1.413       .  A
C940        C945   1.451       .  S
C941        C942   1.406       .  A
C941        C948   1.454       .  S
C942        C943   1.406       .  A
C943        C944   1.415       .  A
C943        C946   1.455       .  S
C944        C947   1.445       .  S
C945        N952   1.158       .  T
C948        N950   1.157       .  T
N949       C1507   1.156       .  T
N951       C1506   1.157       .  T
C953        C954   1.430       .  A
C953        C958   1.426       .  A
C954        C955   1.407       .  A
C954        C959   1.453       .  S
C955        C956   1.409       .  A
C955        C962   1.454       .  S
C956        C957   1.411       .  A
C957        C958   1.419       .  A
C957        C960   1.453       .  S
C958        C961   1.446       .  S
C959       N1526   1.157       .  T
C960        N965   1.157       .  T
C961        N963   1.157       .  T
C962       N1524   1.158       .  T
C967        C968   1.429       .  A
C967        C972   1.431       .  A
C968        C969   1.414       .  A
C968        C973   1.445       .  S
C969        C970   1.403       .  A
C969        C976   1.455       .  S
C970        C971   1.404       .  A
C971        C972   1.412       .  A
C971        C974   1.455       .  S
C972        C975   1.450       .  S
C973        N980   1.156       .  T
C974        N979   1.157       .  T
C975        N977   1.158       .  T
C976        N978   1.157       .  T
N981        C985   1.355       .  A
N981        C982   1.359       .  A
N981       C1013   1.432       .  S
C982        C983   1.371       .  A
C982       C1017   1.470       .  S
C983        C984   1.372       .  A
C983        H986   1.072       .  S
C984        C985   1.386       .  A
C984        H987   1.076       .  S
C985       C1025   1.496       .  S
N988        C992   1.356       .  A
N988        C989   1.369       .  A
N988       C1040   1.453       .  S
C989        C990   1.373       .  A
C989        C996   1.470       .  S
C990        C991   1.351       .  A
C990        H993   1.081       .  S
C991        C992   1.379       .  A
C991        H994   1.078       .  S
C992       C1014   1.465       .  S
N995        C999   1.354       .  A
N995        C996   1.358       .  A
N995       C1012   1.430       .  S
C996        C997   1.371       .  A
C997        C998   1.375       .  A
C997       H1000   1.074       .  S
C998        C999   1.386       .  A
C998       H1001   1.075       .  S
C999       C1597   1.496       .  S
O1002      C1012   1.272       .  A
O1002     Ni1570   1.891       .  S
O1003      C1013   1.272       .  A
O1003     Ni1010   1.892       .  S
O1004      C1014   1.292       .  A
O1004     Ni1010   1.961       .  S
O1005      C1015   1.291       .  A
O1005     Ni1570   1.961       .  S
O1006      C1015   1.265       .  A
O1006     Ni1571   1.847       .  S
O1007      C1014   1.265       .  A
O1007     Ni1011   1.848       .  S
O1008      C1013   1.288       .  A
O1008     Ni1011   1.938       .  S
O1009      C1012   1.287       .  A
O1009     Ni1571   1.937       .  S
Ni1010    Ni1011   2.386       .  S
C1015      C1020   1.465       .  S
N1016      C1020   1.357       .  A
N1016      C1017   1.370       .  A
N1016      C1028   1.454       .  S
C1017      C1018   1.372       .  A
C1018      C1019   1.350       .  A
C1018      H1021   1.081       .  S
C1019      C1020   1.380       .  A
C1019      H1022   1.077       .  S
C1023      C1584   1.534       .  S
C1023      C1029   1.543       .  S
C1023      C1027   1.552       .  S
C1023      C1093   1.560       .  S
C1024      H1031   1.087       .  S
C1024      C1025   1.362       .  D
C1026      C1585   1.554       .  S
C1026      C1030   1.547       .  S
C1026      C1028   1.554       .  S
C1026      H1032   1.106       .  S
C1027      H1033   1.077       .  S
C1027      C1028   1.365       .  D
C1029      H1034   1.084       .  S
C1029      C1030   1.371       .  D
C1030      C1107   1.521       .  S
C1035      C1036   1.536       .  S
C1035      C1041   1.542       .  S
C1035      C1039   1.547       .  S
C1035      C1065   1.555       .  S
C1036      C1037   1.361       .  D
C1037      C1038   1.554       .  S
C1038      C1042   1.549       .  S
C1038      C1040   1.557       .  S
C1038      H1044   1.107       .  S
C1039      H1045   1.078       .  S
C1039      C1040   1.363       .  D
C1041      H1046   1.084       .  S
C1041      C1042   1.370       .  D
C1042      C1079   1.523       .  S
H1043      C1596   1.087       .  S
C1047      C1052   1.404       .  A
C1047      C1096   1.494       .  S
C1048      C1049   1.399       .  A
C1048      H1053   1.084       .  S
C1049      C1050   1.404       .  A
C1049      C1110   1.485       .  S
C1050      C1051   1.409       .  A
C1050      H1054   1.080       .  S
C1051      C1340   1.507       .  S
C1052      H1055   1.080       .  S
C1056      C1061   1.399       .  A
C1056      C1068   1.486       .  S
C1057      C1058   1.400       .  A
C1057      H1062   1.084       .  S
C1058      C1059   1.408       .  A
C1058      C1082   1.490       .  S
C1059      C1060   1.415       .  A
C1059      H1063   1.080       .  S
C1061      H1064   1.080       .  S
C1065      C1066   1.427       .  A
C1065      C1070   1.427       .  A
C1066      C1067   1.417       .  A
C1066      C1071   1.446       .  S
C1067      C1068   1.408       .  A
C1067      C1074   1.453       .  S
C1068      C1069   1.408       .  A
C1069      C1070   1.403       .  A
C1071      N1078   1.157       .  T
C1072      C1629   1.455       .  S
C1072      N1077   1.157       .  T
C1073      C1630   1.452       .  S
C1073      N1075   1.157       .  T
C1074      N1076   1.157       .  T
C1079      C1080   1.430       .  A
C1079      C1084   1.428       .  A
C1080      C1081   1.413       .  A
C1080      C1085   1.451       .  S
C1081      C1082   1.406       .  A
C1081      C1088   1.454       .  S
C1082      C1083   1.406       .  A
C1083      C1084   1.415       .  A
C1083      C1086   1.455       .  S
C1084      C1087   1.445       .  S
C1085      N1092   1.158       .  T
C1088      N1090   1.157       .  T
N1089      C1647   1.156       .  T
N1091      C1646   1.157       .  T
C1093      C1094   1.430       .  A
C1093      C1098   1.426       .  A
C1094      C1095   1.407       .  A
C1094      C1099   1.453       .  S
C1095      C1096   1.409       .  A
C1095      C1102   1.454       .  S
C1096      C1097   1.411       .  A
C1097      C1098   1.419       .  A
C1097      C1100   1.453       .  S
C1098      C1101   1.446       .  S
C1099      N1666   1.157       .  T
C1100      N1105   1.157       .  T
C1101      N1103   1.157       .  T
C1102      N1664   1.158       .  T
C1107      C1108   1.429       .  A
C1107      C1112   1.431       .  A
C1108      C1109   1.414       .  A
C1108      C1113   1.445       .  S
C1109      C1110   1.403       .  A
C1109      C1116   1.455       .  S
C1110      C1111   1.404       .  A
C1111      C1112   1.412       .  A
C1111      C1114   1.455       .  S
C1112      C1115   1.450       .  S
C1113      N1120   1.156       .  T
C1114      N1119   1.157       .  T
C1115      N1117   1.158       .  T
C1116      N1118   1.157       .  T
N1121      C1125   1.355       .  A
N1121      C1122   1.359       .  A
N1121      C1153   1.432       .  S
C1122      C1123   1.371       .  A
C1122      C1157   1.470       .  S
C1123      C1124   1.372       .  A
C1123      H1126   1.072       .  S
C1124      C1125   1.386       .  A
C1124      H1127   1.076       .  S
C1125      C1165   1.496       .  S
N1128      C1132   1.356       .  A
N1128      C1129   1.369       .  A
N1128      C1180   1.453       .  S
C1129      C1130   1.373       .  A
C1129      C1136   1.470       .  S
C1130      C1131   1.351       .  A
C1130      H1133   1.081       .  S
C1131      C1132   1.379       .  A
C1131      H1134   1.078       .  S
C1132      C1154   1.465       .  S
N1135      C1139   1.354       .  A
N1135      C1136   1.358       .  A
N1135      C1152   1.430       .  S
C1136      C1137   1.371       .  A
C1137      C1138   1.375       .  A
C1137      H1140   1.074       .  S
C1138      C1139   1.386       .  A
C1138      H1141   1.075       .  S
O1142      C1152   1.272       .  A
O1143      C1153   1.272       .  A
O1143     Ni1150   1.892       .  S
O1144      C1154   1.292       .  A
O1144     Ni1150   1.961       .  S
O1145      C1155   1.291       .  A
O1146      C1155   1.265       .  A
O1147      C1154   1.265       .  A
O1147     Ni1151   1.848       .  S
O1148      C1153   1.288       .  A
O1148     Ni1151   1.938       .  S
O1149      C1152   1.287       .  A
Ni1150    Ni1151   2.386       .  S
C1155      C1160   1.465       .  S
N1156      C1160   1.357       .  A
N1156      C1157   1.370       .  A
N1156      C1168   1.454       .  S
C1157      C1158   1.372       .  A
C1158      C1159   1.350       .  A
C1158      H1161   1.081       .  S
C1159      C1160   1.380       .  A
C1159      H1162   1.077       .  S
C1163      C1169   1.543       .  S
C1163      C1167   1.552       .  S
C1163      C1233   1.560       .  S
C1164      H1171   1.087       .  S
C1164      C1165   1.362       .  D
C1166      C1170   1.547       .  S
C1166      C1168   1.554       .  S
C1166      H1172   1.106       .  S
C1167      H1173   1.077       .  S
C1167      C1168   1.365       .  D
C1169      H1174   1.084       .  S
C1169      C1170   1.371       .  D
C1170      C1247   1.521       .  S
C1175      C1176   1.536       .  S
C1175      C1181   1.542       .  S
C1175      C1179   1.547       .  S
C1175      C1205   1.555       .  S
C1176      C1177   1.362       .  D
C1177      C1178   1.554       .  S
C1178      C1182   1.549       .  S
C1178      C1180   1.557       .  S
C1178      H1184   1.107       .  S
C1179      H1185   1.078       .  S
C1179      C1180   1.363       .  D
C1181      H1186   1.084       .  S
C1181      C1182   1.370       .  D
C1182      C1219   1.523       .  S
C1187      C1328   1.398       .  A
C1187      C1192   1.404       .  A
C1187      C1236   1.494       .  S
C1188      C1327   1.398   1_554  A
C1188      C1189   1.399       .  A
C1188      H1193   1.084       .  S
C1189      C1190   1.404   1_655  A
C1189      C1250   1.485       .  S
C1190      C1191   1.409       .  A
C1190      H1194   1.080       .  S
C1191      C1332   1.415   1_454  A
C1192      C1331   1.415   1_655  A
C1192      H1195   1.080       .  S
C1196      C1337   1.397       .  A
C1196      C1201   1.399       .  A
C1196      C1208   1.486       .  S
C1197      C1336   1.397   1_554  A
C1197      C1198   1.400       .  A
C1197      H1202   1.084       .  S
C1198      C1199   1.408       .  A
C1198      C1222   1.490       .  S
C1199      C1200   1.415       .  A
C1199      H1203   1.080       .  S
C1200      C1341   1.408   1_554  A
C1201      C1340   1.408       .  A
C1201      H1204   1.080       .  S
C1205      C1206   1.427       .  A
C1205      C1210   1.427       .  A
C1206      C1207   1.417       .  A
C1206      C1211   1.446       .  S
C1207      C1208   1.408       .  A
C1207      C1214   1.453       .  S
C1208      C1209   1.408       .  A
C1209      C1210   1.403       .  A
C1211      N1218   1.157       .  T
C1212      N1217   1.157       .  T
C1213      N1215   1.157       .  T
C1214      N1216   1.157       .  T
C1219      C1220   1.430       .  A
C1219      C1224   1.428       .  A
C1220      C1221   1.413       .  A
C1220      C1225   1.451       .  S
C1221      C1222   1.406       .  A
C1221      C1228   1.454       .  S
C1222      C1223   1.406       .  A
C1223      C1224   1.415       .  A
C1223      C1226   1.455       .  S
C1224      C1227   1.445       .  S
C1225      N1232   1.158       .  T
C1228      N1230   1.157       .  T
C1233      C1234   1.430       .  A
C1233      C1238   1.426       .  A
C1234      C1235   1.407   1_655  A
C1234      C1239   1.453   1_655  S
C1235      C1236   1.409   1_455  A
C1235      C1242   1.454       .  S
C1236      C1237   1.411       .  A
C1237      C1238   1.419       .  A
C1237      C1240   1.453       .  S
C1238      C1241   1.446       .  S
C1240      N1245   1.157       .  T
C1241      N1243   1.157       .  T
C1247      C1248   1.429   1_655  A
C1247      C1252   1.431       .  A
C1248      C1249   1.414       .  A
C1248      C1253   1.445       .  S
C1249      C1250   1.403   1_455  A
C1249      C1256   1.455       .  S
C1250      C1251   1.404       .  A
C1251      C1252   1.412       .  A
C1251      C1254   1.455       .  S
C1252      C1255   1.450       .  S
C1253      N1260   1.156       .  T
C1254      N1259   1.157       .  T
C1255      N1257   1.158       .  T
C1256      N1258   1.157       .  T
N1261      C1265   1.355       .  A
N1261      C1262   1.359       .  A
N1261      C1293   1.432       .  S
C1262      C1263   1.371       .  A
C1262      C1297   1.470       .  S
C1263      C1264   1.372       .  A
C1263      H1266   1.072       .  S
C1264      C1265   1.386       .  A
C1264      H1267   1.076       .  S
C1265      C1305   1.496       .  S
N1268      C1272   1.356       .  A
N1268      C1269   1.369       .  A
N1268      C1320   1.453       .  S
C1269      C1270   1.373       .  A
C1269      C1276   1.470       .  S
C1270      C1271   1.351       .  A
C1270      H1273   1.081       .  S
C1271      C1272   1.379       .  A
C1271      H1274   1.078       .  S
C1272      C1294   1.465       .  S
N1275      C1279   1.354       .  A
N1275      C1276   1.358       .  A
N1275      C1292   1.430       .  S
C1276      C1277   1.371       .  A
C1277      C1278   1.375       .  A
C1277      H1280   1.074       .  S
C1278      C1279   1.386       .  A
C1278      H1281   1.075       .  S
O1282      C1292   1.272       .  A
O1283      C1293   1.272       .  A
O1283     Ni1290   1.892       .  S
O1284      C1294   1.292       .  A
O1284     Ni1290   1.961       .  S
O1285      C1295   1.291       .  A
O1286      C1295   1.265       .  A
O1287      C1294   1.265       .  A
O1287     Ni1291   1.848       .  S
O1288      C1293   1.288       .  A
O1288     Ni1291   1.938       .  S
O1289      C1292   1.287       .  A
Ni1290    Ni1291   2.386       .  S
C1295      C1300   1.465       .  S
N1296      C1300   1.357       .  A
N1296      C1297   1.370       .  A
N1296      C1308   1.454       .  S
C1297      C1298   1.372       .  A
C1298      C1299   1.350       .  A
C1298      H1301   1.081       .  S
C1299      C1300   1.380       .  A
C1299      H1302   1.077       .  S
C1303      C1309   1.543       .  S
C1303      C1307   1.552       .  S
C1303      C1373   1.560       .  S
C1304      H1311   1.087       .  S
C1304      C1305   1.362       .  D
C1306      C1310   1.547       .  S
C1306      C1308   1.554       .  S
C1306      H1312   1.106       .  S
C1307      H1313   1.077       .  S
C1307      C1308   1.365       .  D
C1309      H1314   1.084       .  S
C1309      C1310   1.371       .  D
C1310      C1387   1.521       .  S
C1315      C1316   1.536       .  S
C1315      C1321   1.542       .  S
C1315      C1319   1.547       .  S
C1315      C1345   1.555       .  S
C1316      C1317   1.361       .  D
C1317      C1318   1.554       .  S
C1318      C1322   1.549       .  S
C1318      C1320   1.557       .  S
C1318      H1324   1.107       .  S
C1319      H1325   1.078       .  S
C1319      C1320   1.363       .  D
C1321      H1326   1.084       .  S
C1321      C1322   1.370       .  D
C1322      C1359   1.523       .  S
C1327      C1332   1.404       .  A
C1327      C1376   1.494       .  S
C1328      C1329   1.399       .  A
C1328      H1333   1.084       .  S
C1329      C1330   1.404   1_655  A
C1329      C1390   1.485       .  S
C1330      C1331   1.409       .  A
C1330      H1334   1.080       .  S
C1332      H1335   1.080       .  S
C1336      C1341   1.399       .  A
C1336      C1348   1.486       .  S
C1337      C1338   1.400       .  A
C1337      H1342   1.084       .  S
C1338      C1339   1.408       .  A
C1338      C1362   1.490       .  S
C1339      C1340   1.415       .  A
C1339      H1343   1.080       .  S
C1341      H1344   1.080       .  S
C1345      C1346   1.427       .  A
C1345      C1350   1.427       .  A
C1346      C1347   1.417       .  A
C1346      C1351   1.446       .  S
C1347      C1348   1.408       .  A
C1347      C1354   1.453       .  S
C1348      C1349   1.408       .  A
C1349      C1350   1.403       .  A
C1351      N1358   1.157       .  T
C1352      N1357   1.157       .  T
C1353      N1355   1.157       .  T
C1354      N1356   1.157       .  T
C1359      C1360   1.430       .  A
C1359      C1364   1.428       .  A
C1360      C1361   1.413       .  A
C1360      C1365   1.451       .  S
C1361      C1362   1.406       .  A
C1361      C1368   1.454       .  S
C1362      C1363   1.406       .  A
C1363      C1364   1.415       .  A
C1363      C1366   1.455       .  S
C1364      C1367   1.445       .  S
C1365      N1372   1.158       .  T
C1368      N1370   1.157       .  T
C1373      C1374   1.430       .  A
C1373      C1378   1.426       .  A
C1374      C1375   1.407   1_655  A
C1374      C1379   1.453   1_655  S
C1375      C1376   1.409   1_455  A
C1375      C1382   1.454       .  S
C1376      C1377   1.411       .  A
C1377      C1378   1.419       .  A
C1377      C1380   1.453       .  S
C1378      C1381   1.446       .  S
C1380      N1385   1.157       .  T
C1381      N1383   1.157       .  T
C1387      C1388   1.429   1_655  A
C1387      C1392   1.431       .  A
C1388      C1389   1.414       .  A
C1388      C1393   1.445       .  S
C1389      C1390   1.403   1_455  A
C1389      C1396   1.455       .  S
C1390      C1391   1.404       .  A
C1391      C1392   1.412       .  A
C1391      C1394   1.455       .  S
C1392      C1395   1.450       .  S
C1393      N1400   1.156       .  T
C1394      N1399   1.157       .  T
C1395      N1397   1.158       .  T
C1396      N1398   1.157       .  T
N1401      C1405   1.355       .  A
N1401      C1402   1.359       .  A
N1401      C1433   1.432       .  S
C1402      C1403   1.371       .  A
C1402      C1437   1.470       .  S
C1403      C1404   1.372       .  A
C1403      H1406   1.072       .  S
C1404      C1405   1.386       .  A
C1404      H1407   1.076       .  S
C1405      C1445   1.496       .  S
N1408      C1412   1.356       .  A
N1408      C1409   1.369       .  A
N1408      C1460   1.453       .  S
C1409      C1410   1.373       .  A
C1409      C1416   1.470       .  S
C1410      C1411   1.351       .  A
C1410      H1413   1.081       .  S
C1411      C1412   1.379       .  A
C1411      H1414   1.078       .  S
C1412      C1434   1.465       .  S
N1415      C1419   1.354       .  A
N1415      C1416   1.358       .  A
N1415      C1432   1.430       .  S
C1416      C1417   1.371       .  A
C1417      C1418   1.375       .  A
C1417      H1420   1.074       .  S
C1418      C1419   1.386       .  A
C1418      H1421   1.075       .  S
O1422      C1432   1.272       .  A
O1423      C1433   1.272       .  A
O1423     Ni1430   1.892       .  S
O1424      C1434   1.292       .  A
O1424     Ni1430   1.961       .  S
O1425      C1435   1.291       .  A
O1426      C1435   1.265       .  A
O1427      C1434   1.265       .  A
O1427     Ni1431   1.848       .  S
O1428      C1433   1.288       .  A
O1428     Ni1431   1.938       .  S
O1429      C1432   1.287       .  A
Ni1430    Ni1431   2.386       .  S
C1435      C1440   1.465       .  S
N1436      C1440   1.357       .  A
N1436      C1437   1.370       .  A
N1436      C1448   1.454       .  S
C1437      C1438   1.372       .  A
C1438      C1439   1.350       .  A
C1438      H1441   1.081       .  S
C1439      C1440   1.380       .  A
C1439      H1442   1.077       .  S
C1443      C1449   1.543       .  S
C1443      C1447   1.552       .  S
C1443      C1513   1.560       .  S
C1444      H1451   1.087       .  S
C1444      C1445   1.362       .  D
C1446      C1450   1.547       .  S
C1446      C1448   1.554       .  S
C1446      H1452   1.106       .  S
C1447      H1453   1.077       .  S
C1447      C1448   1.365       .  D
C1449      H1454   1.084       .  S
C1449      C1450   1.371       .  D
C1450      C1527   1.521       .  S
C1455      C1456   1.536       .  S
C1455      C1461   1.542       .  S
C1455      C1459   1.547       .  S
C1455      C1485   1.555       .  S
C1456      C1457   1.361       .  D
C1457      C1458   1.554       .  S
C1458      C1462   1.549       .  S
C1458      C1460   1.557       .  S
C1458      H1464   1.107       .  S
C1459      H1465   1.078       .  S
C1459      C1460   1.363       .  D
C1461      H1466   1.084       .  S
C1461      C1462   1.370       .  D
C1462      C1499   1.523       .  S
C1467      C1608   1.398       .  A
C1467      C1472   1.404       .  A
C1467      C1516   1.494       .  S
C1468      C1607   1.398   1_554  A
C1468      C1469   1.399       .  A
C1468      H1473   1.084       .  S
C1469      C1470   1.404   1_655  A
C1469      C1530   1.485       .  S
C1470      C1471   1.409       .  A
C1470      H1474   1.080       .  S
C1471      C1612   1.415   1_454  A
C1472      C1611   1.415   1_655  A
C1472      H1475   1.080       .  S
C1476      C1617   1.397       .  A
C1476      C1481   1.399       .  A
C1476      C1488   1.486       .  S
C1477      C1616   1.397   1_554  A
C1477      C1478   1.400       .  A
C1477      H1482   1.084       .  S
C1478      C1479   1.408       .  A
C1478      C1502   1.490       .  S
C1479      C1480   1.415       .  A
C1479      H1483   1.080       .  S
C1480      C1621   1.408   1_554  A
C1481      C1620   1.408       .  A
C1481      H1484   1.080       .  S
C1485      C1486   1.427       .  A
C1485      C1490   1.427       .  A
C1486      C1487   1.417       .  A
C1486      C1491   1.446       .  S
C1487      C1488   1.408       .  A
C1487      C1494   1.453       .  S
C1488      C1489   1.408       .  A
C1489      C1490   1.403       .  A
C1491      N1498   1.157       .  T
C1492      N1497   1.157       .  T
C1493      N1495   1.157       .  T
C1494      N1496   1.157       .  T
C1499      C1500   1.430       .  A
C1499      C1504   1.428       .  A
C1500      C1501   1.413       .  A
C1500      C1505   1.451       .  S
C1501      C1502   1.406       .  A
C1501      C1508   1.454       .  S
C1502      C1503   1.406       .  A
C1503      C1504   1.415       .  A
C1503      C1506   1.455       .  S
C1504      C1507   1.445       .  S
C1505      N1512   1.158       .  T
C1508      N1510   1.157       .  T
C1513      C1514   1.430       .  A
C1513      C1518   1.426       .  A
C1514      C1515   1.407   1_655  A
C1514      C1519   1.453   1_655  S
C1515      C1516   1.409   1_455  A
C1515      C1522   1.454       .  S
C1516      C1517   1.411       .  A
C1517      C1518   1.419       .  A
C1517      C1520   1.453       .  S
C1518      C1521   1.446       .  S
C1520      N1525   1.157       .  T
C1521      N1523   1.157       .  T
C1527      C1528   1.429   1_655  A
C1527      C1532   1.431       .  A
C1528      C1529   1.414       .  A
C1528      C1533   1.445       .  S
C1529      C1530   1.403   1_455  A
C1529      C1536   1.455       .  S
C1530      C1531   1.404       .  A
C1531      C1532   1.412       .  A
C1531      C1534   1.455       .  S
C1532      C1535   1.450       .  S
C1533      N1540   1.156       .  T
C1534      N1539   1.157       .  T
C1535      N1537   1.158       .  T
C1536      N1538   1.157       .  T
N1541      C1545   1.355       .  A
N1541      C1542   1.359       .  A
N1541      C1573   1.432       .  S
C1542      C1543   1.371       .  A
C1542      C1577   1.470       .  S
C1543      C1544   1.372       .  A
C1543      H1546   1.072       .  S
C1544      C1545   1.386       .  A
C1544      H1547   1.076       .  S
C1545      C1585   1.496       .  S
N1548      C1552   1.356       .  A
N1548      C1549   1.369       .  A
N1548      C1600   1.453       .  S
C1549      C1550   1.373       .  A
C1549      C1556   1.470       .  S
C1550      C1551   1.351       .  A
C1550      H1553   1.081       .  S
C1551      C1552   1.379       .  A
C1551      H1554   1.078       .  S
C1552      C1574   1.465       .  S
N1555      C1559   1.354       .  A
N1555      C1556   1.358       .  A
N1555      C1572   1.430       .  S
C1556      C1557   1.371       .  A
C1557      C1558   1.375       .  A
C1557      H1560   1.074       .  S
C1558      C1559   1.386       .  A
C1558      H1561   1.075       .  S
O1562      C1572   1.272       .  A
O1563      C1573   1.272       .  A
O1563     Ni1570   1.892       .  S
O1564      C1574   1.292       .  A
O1564     Ni1570   1.961       .  S
O1565      C1575   1.291       .  A
O1566      C1575   1.265       .  A
O1567      C1574   1.265       .  A
O1567     Ni1571   1.848       .  S
O1568      C1573   1.288       .  A
O1568     Ni1571   1.938       .  S
O1569      C1572   1.287       .  A
Ni1570    Ni1571   2.386       .  S
C1575      C1580   1.465       .  S
N1576      C1580   1.357       .  A
N1576      C1577   1.370       .  A
N1576      C1588   1.454       .  S
C1577      C1578   1.372       .  A
C1578      C1579   1.350       .  A
C1578      H1581   1.081       .  S
C1579      C1580   1.380       .  A
C1579      H1582   1.077       .  S
C1583      C1589   1.543       .  S
C1583      C1587   1.552       .  S
C1583      C1653   1.560       .  S
C1584      H1591   1.087       .  S
C1584      C1585   1.362       .  D
C1586      C1590   1.547       .  S
C1586      C1588   1.554       .  S
C1586      H1592   1.106       .  S
C1587      H1593   1.077       .  S
C1587      C1588   1.365       .  D
C1589      H1594   1.084       .  S
C1589      C1590   1.371       .  D
C1590      C1667   1.521       .  S
C1595      C1596   1.536       .  S
C1595      C1601   1.542       .  S
C1595      C1599   1.547       .  S
C1595      C1625   1.555       .  S
C1596      C1597   1.362       .  D
C1597      C1598   1.554       .  S
C1598      C1602   1.549       .  S
C1598      C1600   1.557       .  S
C1598      H1604   1.107       .  S
C1599      H1605   1.078       .  S
C1599      C1600   1.363       .  D
C1601      H1606   1.084       .  S
C1601      C1602   1.370       .  D
C1602      C1639   1.523       .  S
C1607      C1612   1.404       .  A
C1607      C1656   1.494       .  S
C1608      C1609   1.399       .  A
C1608      H1613   1.084       .  S
C1609      C1610   1.404   1_655  A
C1609      C1670   1.485       .  S
C1610      C1611   1.409       .  A
C1610      H1614   1.080       .  S
C1612      H1615   1.080       .  S
C1616      C1621   1.399       .  A
C1616      C1628   1.486       .  S
C1617      C1618   1.400       .  A
C1617      H1622   1.084       .  S
C1618      C1619   1.408       .  A
C1618      C1642   1.490       .  S
C1619      C1620   1.415       .  A
C1619      H1623   1.080       .  S
C1621      H1624   1.080       .  S
C1625      C1626   1.427       .  A
C1625      C1630   1.427       .  A
C1626      C1627   1.417       .  A
C1626      C1631   1.446       .  S
C1627      C1628   1.408       .  A
C1627      C1634   1.453       .  S
C1628      C1629   1.408       .  A
C1629      C1630   1.403       .  A
C1631      N1638   1.157       .  T
C1632      N1637   1.157       .  T
C1633      N1635   1.157       .  T
C1634      N1636   1.157       .  T
C1639      C1640   1.430       .  A
C1639      C1644   1.428       .  A
C1640      C1641   1.413       .  A
C1640      C1645   1.451       .  S
C1641      C1642   1.406       .  A
C1641      C1648   1.454       .  S
C1642      C1643   1.406       .  A
C1643      C1644   1.415       .  A
C1643      C1646   1.455       .  S
C1644      C1647   1.445       .  S
C1645      N1652   1.158       .  T
C1648      N1650   1.157       .  T
C1653      C1654   1.430       .  A
C1653      C1658   1.426       .  A
C1654      C1655   1.407   1_655  A
C1654      C1659   1.453   1_655  S
C1655      C1656   1.409   1_455  A
C1655      C1662   1.454       .  S
C1656      C1657   1.411       .  A
C1657      C1658   1.419       .  A
C1657      C1660   1.453       .  S
C1658      C1661   1.446       .  S
C1660      N1665   1.157       .  T
C1661      N1663   1.157       .  T
C1667      C1668   1.429   1_655  A
C1667      C1672   1.431       .  A
C1668      C1669   1.414       .  A
C1668      C1673   1.445       .  S
C1669      C1670   1.403   1_455  A
C1669      C1676   1.455       .  S
C1670      C1671   1.404       .  A
C1671      C1672   1.412       .  A
C1671      C1674   1.455       .  S
C1672      C1675   1.450       .  S
C1673      N1680   1.156       .  T
C1674      N1679   1.157       .  T
C1675      N1677   1.158       .  T
C1676      N1678   1.157       .  T
