geometry optimzed in LAMMPS
_audit_creation_date              2020-11-30 
_audit_creation_method            'lammps2cif' 
_symmetry_space_group_name_H-M    'P1' 
_symmetry_Int_Tables_number       1 
_symmetry_cell_setting            triclinic 
loop_ 
_symmetry_equiv_pos_as_xyz 
  x,y,z 
_cell_length_a                    27.21887909 
_cell_length_b                    45.40699793851273 
_cell_length_c                    37.973386958585714 
_cell_angle_alpha                 89.63221210434882 
_cell_angle_beta                  101.69666635428378 
_cell_angle_gamma                 92.22167770955089 
loop_ 
_atom_site_label 
_atom_site_type_symbol 
_atom_site_fract_x 
_atom_site_fract_y 
_atom_site_fract_z 
_atom_site_charge 
C1          C  0.08881710  0.86978358  0.14713080     0.85700
C2          C  0.04864199  0.86376422  0.16961714    -0.54600
C3          C  0.05589507  0.83995138  0.19168856     0.08600
C4          C  0.10440874  0.82335134  0.18882619     0.19500
C5          C  0.13761186  0.87173390  0.17696964    -0.55300
C6          C  0.14831034  0.84666693  0.19757013     0.08700
C7          C  0.09302446  0.84076376  0.12738717    -0.54800
C8          C  0.10111855  0.81650238  0.14872329     0.09300
H9          H  0.01801265  0.87843460  0.16957124     0.13800
H10         H  0.10887834  0.80278529  0.20408800    -0.00500
H11         H  0.16041033  0.89151693  0.18391177     0.14100
H12         H  0.09057160  0.83970494  0.09851484     0.13900
C13         C  0.16120567  0.64653103  0.10325707     0.85700
C14         C  0.15672407  0.67607399  0.12260238    -0.54600
C15         C  0.14668375  0.69980634  0.10010437     0.08600
C16         C  0.14380000  0.69194290  0.06035080     0.19500
C17         C  0.11335566  0.64331547  0.07370989    -0.55300
C18         C  0.10143072  0.66762477  0.05229003     0.08700
C19         C  0.20318942  0.65405163  0.08287497    -0.54800
C20         C  0.19377413  0.67647969  0.05895916     0.09300
H21         H  0.16161107  0.67834297  0.15151591     0.13800
H22         H  0.13798944  0.71204189  0.04423147    -0.00500
H23         H  0.09132821  0.62278203  0.07010308     0.14100
H24         H  0.23734010  0.64191394  0.08592356     0.13900
C25         C  0.40579363  0.86773656  0.34908738     0.85700
C26         C  0.44188933  0.86316752  0.32321102    -0.54600
C27         C  0.43063091  0.83894033  0.30084354     0.08600
C28         C  0.38200720  0.82176312  0.30677980     0.19500
C29         C  0.35473777  0.86927014  0.32265426    -0.55300
C30         C  0.34129934  0.84507467  0.30136964     0.08700
C31         C  0.40434129  0.83849035  0.36886828    -0.54800
C32         C  0.39112775  0.81446460  0.34746767     0.09300
H33         H  0.47307759  0.87853417  0.32203711     0.13800
H34         H  0.37089008  0.80194765  0.28982999    -0.00500
H35         H  0.33241166  0.88868754  0.31860205     0.14100
H36         H  0.41327762  0.83703409  0.39800486     0.13900
C37         C  0.34277084  0.64417532  0.40321824     0.85700
C38         C  0.34422050  0.67367630  0.38342450    -0.54600
C39         C  0.35701093  0.69768722  0.40474018     0.08600
C40         C  0.36713555  0.69022980  0.44525812     0.19500
C41         C  0.39611043  0.64365040  0.42674670    -0.55300
C42         C  0.40847160  0.66729124  0.44949851     0.08700
C43         C  0.30856897  0.64829237  0.43001137    -0.54800
C44         C  0.31940878  0.67268527  0.45180171     0.09300
H45         H  0.33870504  0.67544210  0.35446066     0.13800
H46         H  0.37818234  0.71011920  0.46204376    -0.00500
H47         H  0.42219555  0.62638767  0.42563690     0.14100
H48         H  0.27851593  0.63232909  0.43195392     0.13900
C49         C  0.07332071  0.15166157  0.14672080     0.85700
C50         C  0.07969199  0.18158465  0.12935989    -0.54600
C51         C  0.09289090  0.20467787  0.15276447     0.08600
C52         C  0.09856030  0.19520332  0.19273623     0.19500
C53         C  0.12349240  0.14782739  0.17375008    -0.55300
C54         C  0.13795058  0.17085156  0.19728468     0.08700
C55         C  0.03643585  0.15585853  0.17175372    -0.54800
C56         C  0.04850075  0.17843295  0.19561044     0.09300
H57         H  0.07629406  0.18396223  0.10048930     0.13800
H58         H  0.10819690  0.21382230  0.21187768    -0.00500
H59         H  0.14572799  0.12841741  0.17474891     0.14100
H60         H  0.00529382  0.14042133  0.17287812     0.13900
C61         C  0.16740578  0.36791884  0.09977588     0.85700
C62         C  0.20830757  0.36380252  0.07795457    -0.54600
C63         C  0.19766261  0.34271510  0.05164755     0.08600
C64         C  0.14621793  0.32625694  0.05064155     0.19500
C65         C  0.12074445  0.37326252  0.07004375    -0.55300
C66         C  0.10819138  0.35103617  0.04544798     0.08700
C67         C  0.15777595  0.33737018  0.11461137    -0.54800
C68         C  0.14719618  0.31525785  0.08954694     0.09300
H69         H  0.24192883  0.37803104  0.08139811     0.13800
H70         H  0.13708746  0.30881209  0.02982123    -0.00500
H71         H  0.09934715  0.39301725  0.06757467     0.14100
H72         H  0.15871769  0.33359856  0.14302246     0.13900
C73         C  0.38726269  0.14210982  0.34775240     0.85700
C74         C  0.38524797  0.17198240  0.36660758    -0.54600
C75         C  0.37711211  0.19575201  0.34405045     0.08600
C76         C  0.37323361  0.18729804  0.30418893     0.19500
C77         C  0.33921484  0.13924904  0.31936614    -0.55300
C78         C  0.33088762  0.16269165  0.29687919     0.08700
C79         C  0.42884984  0.14834232  0.32663124    -0.54800
C80         C  0.42399829  0.17218057  0.30391960     0.09300
H81         H  0.39177722  0.17452223  0.39557624     0.13800
H82         H  0.36402467  0.20574182  0.28557682    -0.00500
H83         H  0.31267510  0.12058739  0.31807055     0.14100
H84         H  0.45981753  0.13384060  0.32994167     0.13900
C85         C  0.35233840  0.36548888  0.39215663     0.85700
C86         C  0.31422656  0.36223210  0.41677419    -0.54600
C87         C  0.32445884  0.34184940  0.44363559     0.08600
C88         C  0.37292900  0.32511550  0.44243306     0.19500
C89         C  0.40234772  0.37125907  0.41932503    -0.55300
C90         C  0.41423019  0.34975597  0.44463100     0.08700
C91         C  0.35580399  0.33442765  0.37775023    -0.54800
C92         C  0.36586235  0.31297209  0.40350556     0.09300
H93         H  0.28238601  0.37630292  0.41425283     0.13800
H94         H  0.38225956  0.30821909  0.46366507    -0.00500
H95         H  0.42620729  0.39093698  0.41968070     0.14100
H96         H  0.35004777  0.32970301  0.34916557     0.13900
O97         O  0.24848383  0.47548749  0.29549134    -0.73800
O98         O  0.19259688  0.53506365  0.22112817    -0.74700
O99         O  0.19870682  0.47277269  0.22312725    -0.63400
O100        O  0.24342661  0.53770607  0.29435919    -0.71800
O101        O  0.31851869  0.53972314  0.27977279    -0.71300
O102        O  0.26970615  0.47859308  0.20331499    -0.62600
O103        O  0.26688170  0.54139164  0.20647798    -0.75100
O104        O  0.31944695  0.47665280  0.27558341    -0.73900
Cu105      Cu  0.21831860  0.50525394  0.25913702     1.04600
Cu106      Cu  0.29629935  0.50935432  0.24073727     1.04300
C107        C  0.29159491  0.46524537  0.29583066     0.92400
C108        C  0.22078671  0.54804034  0.20227256     0.91600
C109        C  0.22729310  0.46519468  0.20219579     0.83700
C110        C  0.28821567  0.54857646  0.29873044     0.90000
O111        O  0.42234208  0.03581819  0.47064097    -0.73800
O112        O  0.47278676  0.97544677  0.04514461    -0.74700
O113        O  0.46639120  0.03781349  0.04545421    -0.63400
O114        O  0.43139830  0.97383122  0.46973935    -0.71800
O115        O  0.00500256  0.98065467  0.45421891    -0.71300
O116        O  0.03937197  0.04261497  0.02909411    -0.62600
O117        O  0.04610007  0.97968843  0.02841344    -0.75100
O118        O  0.99705736  0.04257067  0.45674125    -0.73900
Cu119      Cu  0.44297054  0.00550325  0.00885587     1.04600
Cu120      Cu  0.02648129  0.01152866  0.49224042     1.04300
C121        C  0.45073306  0.04875152  0.45191543     0.92400
C122        C  0.01784483  0.96745908  0.04789550     0.91600
C123        C  0.00959096  0.05075963  0.04882415     0.83700
C124        C  0.46228037  0.96715799  0.45002866     0.90000
C125        C  0.27246610  0.41589657  0.32157567    -0.02700
C126        C  0.30780789  0.43893131  0.31827523     0.07000
C127        C  0.35893407  0.43486581  0.33321746    -0.02800
C128        C  0.37384291  0.40877320  0.35191420    -0.02800
C129        C  0.33776858  0.38882382  0.36211345     0.07100
C130        C  0.28706249  0.39124842  0.34352564    -0.03000
Br131      Br  0.23699952  0.36002527  0.34452223    -0.01500
Br132      Br  0.20430733  0.41647290  0.29380959    -0.01600
Br133      Br  0.44129684  0.39713224  0.35244924    -0.01600
Br134      Br  0.40985043  0.46489753  0.32922815    -0.01500
C135        C  0.39473855  0.09118254  0.43061347    -0.02700
C136        C  0.42954373  0.07058931  0.42404077     0.07000
C137        C  0.44054161  0.06934191  0.38932257    -0.02800
C138        C  0.42029089  0.08989776  0.36290051    -0.02800
C139        C  0.39538548  0.11471878  0.37238766     0.07100
C140        C  0.37685016  0.11265614  0.40466000    -0.03000
Br141      Br  0.32070646  0.13525770  0.41145536    -0.01500
Br142      Br  0.37140083  0.09092401  0.47526657    -0.01600
Br143      Br  0.41823664  0.08018748  0.31296429    -0.01600
Br144      Br  0.98100866  0.03851527  0.37675641    -0.01500
C145        C  0.33230545  0.24331695  0.34818697    -0.02700
C146        C  0.37543172  0.22644695  0.35828693     0.07000
C147        C  0.41523492  0.23772545  0.38535745    -0.02800
C148        C  0.41110588  0.26474343  0.40274149    -0.02800
C149        C  0.36751546  0.28129656  0.39268672     0.07100
C150        C  0.32713052  0.26918832  0.36702159    -0.03000
Br151      Br  0.26218472  0.28637414  0.36018759    -0.01500
Br152      Br  0.28123860  0.23368969  0.30673171    -0.01600
Br153      Br  0.46482816  0.27775478  0.44109024    -0.01600
Br154      Br  0.47807648  0.21781807  0.39587493    -0.01500
C155        C  0.23012543  0.39316204  0.15241605    -0.02700
C156        C  0.18134965  0.39158822  0.12976647     0.07000
C157        C  0.14611998  0.41196399  0.13694097    -0.02800
C158        C  0.16240452  0.43741741  0.15742287    -0.02800
C159        C  0.21176605  0.44004730  0.17739365     0.07100
C160        C  0.24453993  0.41690130  0.17659563    -0.03000
Br161      Br  0.30770653  0.41641332  0.21093713    -0.01500
Br162      Br  0.27711064  0.36211106  0.15370038    -0.01600
Br163      Br  0.11621076  0.46872670  0.15766614    -0.01600
Br164      Br  0.07548336  0.40190001  0.13057821    -0.01500
C165        C  0.05581918  0.34938021  0.48152295    -0.02700
C166        C  0.05910611  0.34999922  0.01941056     0.07000
C167        C  0.01390516  0.34929881  0.03241438    -0.02800
C168        C  0.46725923  0.35003846  0.00846474    -0.02800
C169        C  0.46374694  0.34990921  0.47038562     0.07100
C170        C  0.50895829  0.34896923  0.45741197    -0.03000
Br171      Br  0.50737892  0.34455375  0.40667206    -0.01500
Br172      Br  0.11643330  0.34822401  0.46281469    -0.01600
Br173      Br  0.40733120  0.35156909  0.02784662    -0.01600
Br174      Br  0.01479826  0.34340871  0.08297882    -0.01500
C175        C  0.24577891  0.31436303  0.51244284    -0.02700
C176        C  0.22917780  0.34119104  0.02340027     0.07000
C177        C  0.24462506  0.36771878  0.00836435    -0.02800
C178        C  0.28146375  0.36774191  0.98740483    -0.02800
C179        C  0.29441382  0.34072485  0.47304661     0.07100
C180        C  0.27660079  0.31395692  0.48633991    -0.03000
Br181      Br  0.29279898  0.27661743  0.46862989    -0.01500
Br182      Br  0.22893171  0.27803748  0.53456234    -0.01600
Br183      Br  0.31638654  0.40496430  0.98157365    -0.01600
Br184      Br  0.21179541  0.40433070  0.01238587    -0.01500
C185        C  0.09174728  0.11016198  0.10550569    -0.02700
C186        C  0.05652336  0.12695405  0.11850183     0.07000
C187        C  0.00498135  0.12122204  0.10302796    -0.02800
C188        C  0.98929422  0.09521200  0.08303278    -0.02800
C189        C  0.02517146  0.07609079  0.07434129     0.07100
C190        C  0.07678499  0.08389288  0.08630640    -0.03000
Br191      Br  0.12933044  0.05862200  0.07869664    -0.01500
Br192      Br  0.15767081  0.12640325  0.10410371    -0.01600
Br193      Br  0.41796854  0.08685032  0.06808868    -0.01600
Br194      Br  0.45601097  0.15119696  0.10246057    -0.01500
C195        C  0.19168883  0.17376020  0.26058186    -0.02700
C196        C  0.18805453  0.17162540  0.22304555     0.07000
C197        C  0.23310691  0.16902341  0.21004032    -0.02800
C198        C  0.27963762  0.16627654  0.23404429    -0.02800
C199        C  0.28183215  0.16539801  0.27130498     0.07100
C200        C  0.23713358  0.16808765  0.28439644    -0.03000
Br201      Br  0.23770230  0.16564106  0.33534972    -0.01500
Br202      Br  0.13824879  0.18878894  0.28053200    -0.01600
Br203      Br  0.34028196  0.16216636  0.21581926    -0.01600
Br204      Br  0.23327254  0.17390358  0.15969592    -0.01500
C205        C  0.49024126  0.20413152  0.22920168    -0.02700
C206        C  0.02126914  0.18058891  0.22602558     0.07000
C207        C  0.02669172  0.15847650  0.25252201    -0.02800
C208        C  0.00475065  0.16138211  0.28254250    -0.02800
C209        C  0.46370108  0.17997848  0.28128811     0.07100
C210        C  0.46122557  0.20395200  0.25654901    -0.03000
Br211      Br  0.42955844  0.23990210  0.26421355    -0.01500
Br212      Br  0.48613003  0.23597224  0.19504208    -0.01600
Br213      Br  0.04788029  0.15170589  0.32797461    -0.00800
Br214      Br  0.06676350  0.12458424  0.24999334    -0.01500
C215        C  0.15285231  0.24906254  0.15081749    -0.02700
C216        C  0.10537716  0.23459421  0.13879091     0.07000
C217        C  0.07311284  0.24598777  0.10812170    -0.02800
C218        C  0.08916529  0.26972921  0.08852360    -0.02800
C219        C  0.13602256  0.28446764  0.10116786     0.07100
C220        C  0.16878888  0.27256686  0.13094681    -0.03000
Br221      Br  0.23808294  0.28663887  0.14224631    -0.01500
Br222      Br  0.19607435  0.23967224  0.19574707    -0.01600
Br223      Br  0.04823578  0.27913304  0.04269616    -0.01600
Br224      Br  0.00432748  0.23107835  0.09471917    -0.01500
C225        C  0.33856939  0.58837346  0.38698034    -0.02700
C226        C  0.32522704  0.61783603  0.37755626     0.07000
C227        C  0.29290862  0.62219949  0.34353086    -0.02800
C228        C  0.28769238  0.60069508  0.31669375    -0.02800
C229        C  0.30397082  0.57223053  0.32536325     0.07100
C230        C  0.32781034  0.56574497  0.36081576    -0.03000
Br231      Br  0.34457250  0.52558054  0.37333293    -0.01500
Br232      Br  0.36355060  0.57717281  0.43625210    -0.01600
Br233      Br  0.25940076  0.61072779  0.26759191    -0.01600
Br234      Br  0.24494354  0.65324783  0.33520334    -0.01500
C235        C  0.46997136  0.89728591  0.39657893    -0.02700
C236        C  0.42010400  0.89349524  0.37628580     0.07000
C237        C  0.38357161  0.91203514  0.38543240    -0.02800
C238        C  0.39845106  0.93795117  0.40544278    -0.02800
C239        C  0.44881654  0.94290145  0.42319783     0.07100
C240        C  0.48457439  0.92217010  0.41885324    -0.03000
Br241      Br  0.05359793  0.92641584  0.44476925    -0.01500
Br242      Br  0.01653548  0.86596547  0.40074948    -0.01600
Br243      Br  0.34876549  0.96698083  0.40707341    -0.01600
Br244      Br  0.31474991  0.89827716  0.38325721    -0.01500
C245        C  0.35251664  0.78041898  0.38867024    -0.02700
C246        C  0.38324235  0.78458544  0.36271425     0.07000
C247        C  0.40571082  0.75998940  0.35095044    -0.02800
C248        C  0.39667206  0.73157348  0.36392614    -0.02800
C249        C  0.36538626  0.72744282  0.38949847     0.07100
C250        C  0.34242492  0.75191677  0.40086023    -0.03000
Br251      Br  0.29257993  0.74625415  0.43029731    -0.01500
Br252      Br  0.32137223  0.81302774  0.40729276    -0.01600
Br253      Br  0.43055810  0.69904223  0.34748896    -0.01600
Br254      Br  0.45325516  0.76515621  0.31965125    -0.01500
C255        C  0.16515499  0.59114427  0.18268978    -0.02700
C256        C  0.20008839  0.57091679  0.17541063     0.07000
C257        C  0.21279277  0.57161454  0.14114740    -0.02800
C258        C  0.19519559  0.59402921  0.11633173    -0.02800
C259        C  0.17010968  0.61839634  0.12702071     0.07100
C260        C  0.14962389  0.61430117  0.15841098    -0.03000
Br261      Br  0.09335544  0.63605685  0.16592345    -0.01500
Br262      Br  0.13711793  0.58748912  0.22563742    -0.01600
Br263      Br  0.19721486  0.58739078  0.06626636    -0.01600
Br264      Br  0.25062136  0.54030269  0.12653538    -0.01500
C265        C  0.00716834  0.65447842  0.03301454    -0.02700
C266        C  0.05098947  0.67016712  0.02618081     0.07000
C267        C  0.04396596  0.68672310  0.49506159    -0.02800
C268        C  0.49619718  0.68840380  0.47229186    -0.02800
C269        C  0.45628525  0.66921865  0.47683599     0.07100
C270        C  0.46252668  0.65272298  0.00663251    -0.03000
Br271      Br  0.40754364  0.62641153  0.01348373    -0.01500
Br272      Br  0.00234260  0.63865386  0.07968293    -0.01600
Br273      Br  0.48555517  0.71787049  0.43527804    -0.01600
Br274      Br  0.09779552  0.70813865  0.47839382    -0.01500
C275        C  0.20605219  0.66899064  0.49620921    -0.02700
C276        C  0.22520258  0.68044888  0.03086029     0.07000
C277        C  0.27647840  0.68963341  0.04024585    -0.02800
C278        C  0.30770871  0.68931957  0.01443371    -0.02800
C279        C  0.28692281  0.67956102  0.47873487     0.07100
C280        C  0.23458586  0.67263806  0.46947498    -0.03000
Br281      Br  0.19909130  0.67010892  0.41996548    -0.01500
Br282      Br  0.14920969  0.64136023  0.48650190    -0.01600
Br283      Br  0.37766827  0.70042896  0.03061402    -0.01600
Br284      Br  0.30592947  0.69873247  0.08990721    -0.01500
C285        C  0.02598375  0.89304144  0.09524700    -0.02700
C286        C  0.07368022  0.89537586  0.11967490     0.07000
C287        C  0.10424035  0.92120546  0.11647966    -0.02800
C288        C  0.08418107  0.94541753  0.09560164    -0.02800
C289        C  0.03664262  0.94305356  0.07280616     0.07100
C290        C  0.00837327  0.91638258  0.07187964    -0.03000
Br291      Br  0.44668338  0.91084051  0.03642838    -0.01500
Br292      Br  0.48440036  0.85720131  0.09050820    -0.01600
Br293      Br  0.12205240  0.98250501  0.09912498    -0.01600
Br294      Br  0.17609632  0.92306413  0.13092777    -0.01500
C295        C  0.28703944  0.86091215  0.24329488    -0.02700
C296        C  0.29305237  0.84324499  0.27415390     0.07000
C297        C  0.25269857  0.82444043  0.27916684    -0.02800
C298        C  0.20521859  0.82516437  0.25546867    -0.02800
C299        C  0.19873761  0.84304840  0.22371755     0.07100
C300        C  0.24278632  0.85813099  0.21674427    -0.03000
Br301      Br  0.24942836  0.86893769  0.16888340    -0.01500
Br302      Br  0.34052084  0.88837042  0.23637197    -0.01600
Br303      Br  0.15231083  0.80091801  0.26943464    -0.01600
Br304      Br  0.26188400  0.79786444  0.31933238    -0.01500
C305        C  0.04369400  0.84289200  0.25574997    -0.02700
C306        C  0.02415867  0.83515325  0.21968927     0.07000
C307        C  0.47229973  0.82685571  0.21022062    -0.02800
C308        C  0.44151330  0.82576963  0.23640953    -0.02800
C309        C  0.46231736  0.83249482  0.27308819     0.07100
C310        C  0.01510676  0.83780655  0.28224738    -0.03000
Br311      Br  0.05101778  0.83377674  0.33089467    -0.01500
Br312      Br  0.10323585  0.86813804  0.26836910    -0.01600
Br313      Br  0.37156638  0.81467235  0.22041347    -0.01600
Br314      Br  0.44155238  0.82034001  0.16040417    -0.01500
C315        C  0.15121603  0.78359586  0.11606682    -0.02700
C316        C  0.11191937  0.78686100  0.13502826     0.07000
C317        C  0.08323951  0.76152664  0.14118875    -0.02800
C318        C  0.09384964  0.73357183  0.12912667    -0.02800
C319        C  0.13504455  0.72991111  0.11225823     0.07100
C320        C  0.16279970  0.75542193  0.10505154    -0.03000
Br321      Br  0.21727990  0.75240533  0.08008104    -0.01500
Br322      Br  0.19082745  0.81735778  0.10535015    -0.01600
Br323      Br  0.04745523  0.70123625  0.13221509    -0.01600
Br324      Br  0.02690944  0.76489482  0.16430182    -0.01500
C325        C  0.08004006  0.86824957  0.64517280     0.85700
C326        C  0.04048727  0.86159380  0.66738289    -0.54600
C327        C  0.05010588  0.83870175  0.69038615     0.08600
C328        C  0.09968034  0.82310385  0.68799841     0.19500
C329        C  0.12996656  0.87149096  0.67328269    -0.55300
C330        C  0.14226409  0.84742177  0.69536789     0.08700
C331        C  0.08700823  0.83917069  0.62606384    -0.54800
C332        C  0.09645314  0.81538484  0.64817063     0.09300
H333        H  0.00852790  0.87539064  0.66666045     0.13800
H334        H  0.10563568  0.80288716  0.70382714    -0.00500
H335        H  0.15381830  0.89114533  0.67486883     0.14100
H336        H  0.08747657  0.83779732  0.59762934     0.13900
C337        C  0.16104836  0.64581640  0.60373654     0.85700
C338        C  0.15627843  0.67530199  0.62312192    -0.54600
C339        C  0.14586940  0.69902759  0.60064973     0.08600
C340        C  0.14296280  0.69118283  0.56086970     0.19500
C341        C  0.11318449  0.64240040  0.57429844    -0.55300
C342        C  0.10092317  0.66664653  0.55290027     0.08700
C343        C  0.20287040  0.65352647  0.58330128    -0.54800
C344        C  0.19312009  0.67592839  0.55939219     0.09300
H345        H  0.16115092  0.67751975  0.65204165     0.13800
H346        H  0.13676979  0.71126685  0.54472802    -0.00500
H347        H  0.09139526  0.62177993  0.57072581     0.14100
H348        H  0.23715441  0.64152046  0.58628785     0.13900
C349        C  0.39871317  0.86916774  0.84672244     0.85700
C350        C  0.43570391  0.86468831  0.82137853    -0.54600
C351        C  0.42503654  0.84043898  0.79888671     0.08600
C352        C  0.37647295  0.82312001  0.80427198     0.19500
C353        C  0.34827564  0.87059517  0.81957085    -0.55300
C354        C  0.33570995  0.84635479  0.79816114     0.08700
C355        C  0.39666108  0.83987603  0.86631403    -0.54800
C356        C  0.38466458  0.81584127  0.84486980     0.09300
H357        H  0.46677975  0.88021227  0.82052402     0.13800
H358        H  0.36605552  0.80321480  0.78739235    -0.00500
H359        H  0.32603975  0.89000345  0.81485560     0.14100
H360        H  0.40447374  0.83834995  0.89545995     0.13900
C361        C  0.34345603  0.64551742  0.90243511     0.85700
C362        C  0.34432182  0.67505533  0.88268708    -0.54600
C363        C  0.35671052  0.69908957  0.90403681     0.08600
C364        C  0.36729666  0.69161466  0.94455813     0.19500
C365        C  0.39693000  0.64528961  0.92581993    -0.55300
C366        C  0.40903798  0.66891063  0.94864180     0.08700
C367        C  0.30934682  0.64937985  0.92938119    -0.54800
C368        C  0.31997716  0.67375646  0.95123049     0.09300
H369        H  0.33880296  0.67686490  0.85372122     0.13800
H370        H  0.37798913  0.71153393  0.96136906    -0.00500
H371        H  0.42327181  0.62818957  0.92461768     0.14100
H372        H  0.27946364  0.63330273  0.93134546     0.13900
C373        C  0.07548719  0.15122107  0.64716441     0.85700
C374        C  0.08132628  0.18107721  0.62933159    -0.54600
C375        C  0.09360464  0.20449724  0.65239365     0.08600
C376        C  0.09898667  0.19540517  0.69247391     0.19500
C377        C  0.12535757  0.14804568  0.67463846    -0.55300
C378        C  0.13899489  0.17143118  0.69764453     0.08700
C379        C  0.03800961  0.15540278  0.67180291    -0.54800
C380        C  0.04925024  0.17825328  0.69536458     0.09300
H381        H  0.07823056  0.18318751  0.60046036     0.13800
H382        H  0.10795386  0.21423549  0.71135316    -0.00500
H383        H  0.14784066  0.12869488  0.67674579     0.14100
H384        H  0.00697214  0.13984068  0.67276929     0.13900
C385        C  0.16684230  0.36832309  0.59926297     0.85700
C386        C  0.20753303  0.36416624  0.57725791    -0.54600
C387        C  0.19675060  0.34302953  0.55101648     0.08600
C388        C  0.14529481  0.32661836  0.55015808     0.19500
C389        C  0.12001758  0.37367481  0.56961521    -0.55300
C390        C  0.10729547  0.35143200  0.54500470     0.08700
C391        C  0.15720337  0.33776951  0.61412702    -0.54800
C392        C  0.14642440  0.31563286  0.58909514     0.09300
H393        H  0.24115313  0.37838442  0.58056263     0.13800
H394        H  0.13607336  0.30914946  0.52936981    -0.00500
H395        H  0.09868913  0.39345336  0.56718639     0.14100
H396        H  0.15833179  0.33401195  0.64256289     0.13900
C397        C  0.38759924  0.14301130  0.84805438     0.85700
C398        C  0.38613967  0.17295171  0.86683512    -0.54600
C399        C  0.37833844  0.19670255  0.84422597     0.08600
C400        C  0.37437691  0.18817928  0.80439918     0.19500
C401        C  0.33956388  0.14040763  0.81962105    -0.55300
C402        C  0.33169124  0.16383570  0.79708725     0.08700
C403        C  0.42942516  0.14892523  0.82691972    -0.54800
C404        C  0.42484570  0.17278222  0.80408590     0.09300
H405        H  0.39272918  0.17555099  0.89579433     0.13800
H406        H  0.36536197  0.20663737  0.78581333    -0.00500
H407        H  0.31266232  0.12193003  0.81833150     0.14100
H408        H  0.45990740  0.13434357  0.83024756     0.13900
C409        C  0.35334655  0.36608403  0.89303369     0.85700
C410        C  0.31534909  0.36283290  0.91773343    -0.54600
C411        C  0.32554732  0.34233378  0.94444632     0.08600
C412        C  0.37393649  0.32559092  0.94311988     0.19500
C413        C  0.40343996  0.37177372  0.92011988    -0.55300
C414        C  0.41527746  0.35020296  0.94534946     0.08700
C415        C  0.35668250  0.33507162  0.87849749    -0.54800
C416        C  0.36677420  0.31356568  0.90416215     0.09300
H417        H  0.28359763  0.37695671  0.91535905     0.13800
H418        H  0.38324374  0.30862319  0.96426944    -0.00500
H419        H  0.42741095  0.39140256  0.92040962     0.14100
H420        H  0.35089096  0.33042362  0.84989122     0.13900
O421        O  0.24979473  0.47596294  0.79639682    -0.73800
O422        O  0.19332882  0.53463461  0.72144255    -0.74700
O423        O  0.19970094  0.47248127  0.72405966    -0.63400
O424        O  0.24439744  0.53818571  0.79446795    -0.71800
O425        O  0.31944615  0.54000686  0.77983495    -0.71300
O426        O  0.27041708  0.47833204  0.70390328    -0.62600
O427        O  0.26753577  0.54109981  0.70669343    -0.75100
O428        O  0.32048331  0.47685097  0.77614222    -0.73900
Cu429      Cu  0.21934114  0.50530377  0.75972621     1.04600
Cu430      Cu  0.29714845  0.50932182  0.74109926     1.04300
C431        C  0.29279261  0.46563736  0.79661134     0.92400
C432        C  0.22138379  0.54758523  0.70249924     0.91600
C433        C  0.22803437  0.46492277  0.70292660     0.83700
C434        C  0.28913256  0.54913145  0.79863260     0.90000
O435        O  0.41751343  0.03576357  0.97104343    -0.73800
O436        O  0.47550374  0.97481147  0.54351411    -0.74700
O437        O  0.46896920  0.03709512  0.54546075    -0.63400
O438        O  0.42543920  0.97344646  0.97145953    -0.71800
O439        O  0.99818731  0.97977492  0.95446128    -0.71300
O440        O  0.04280718  0.04243754  0.53045405    -0.62600
O441        O  0.05025665  0.97959699  0.52899663    -0.75100
O442        O  0.99160189  0.04177801  0.95607000    -0.73900
Cu443      Cu  0.44700422  0.00527884  0.50785555     1.04600
Cu444      Cu  0.02143047  0.01113247  0.99161602     1.04300
C445        C  0.44559522  0.04828774  0.95172239     0.92400
C446        C  0.02057198  0.96702148  0.54716845     0.91600
C447        C  0.01219927  0.04998245  0.54986099     0.83700
C448        C  0.45540189  0.96644022  0.95119633     0.90000
C449        C  0.27343413  0.41653142  0.82268735    -0.02700
C450        C  0.30895165  0.43939315  0.81911004     0.07000
C451        C  0.36011222  0.43516192  0.83374200    -0.02800
C452        C  0.37488012  0.40910713  0.85253696    -0.02800
C453        C  0.33873920  0.38939612  0.86304340     0.07100
C454        C  0.28797324  0.39190813  0.84465122    -0.03000
Br455      Br  0.23775787  0.36079006  0.84583151    -0.01500
Br456      Br  0.20508800  0.41725301  0.79524490    -0.01600
Br457      Br  0.44206102  0.39713161  0.85281894    -0.01600
Br458      Br  0.41127838  0.46486163  0.82909860    -0.01500
C459        C  0.39125693  0.09151244  0.93043654    -0.02700
C460        C  0.42482586  0.07021793  0.92379027     0.07000
C461        C  0.43629515  0.06894221  0.88920643    -0.02800
C462        C  0.41818503  0.09023266  0.86309871    -0.02800
C463        C  0.39469854  0.11556178  0.87276715     0.07100
C464        C  0.37532707  0.11361332  0.90479116    -0.03000
Br465      Br  0.32059492  0.13736524  0.91173009    -0.01500
Br466      Br  0.36695523  0.09124146  0.97476237    -0.01600
Br467      Br  0.41707089  0.08097046  0.81316466    -0.01600
Br468      Br  0.97406656  0.03692174  0.87633043    -0.01500
C469        C  0.33365257  0.24430200  0.84826514    -0.02700
C470        C  0.37673620  0.22739960  0.85839638     0.07000
C471        C  0.41643852  0.23856965  0.88559741    -0.02800
C472        C  0.41218887  0.26546606  0.90316923    -0.02800
C473        C  0.36852340  0.28196376  0.89321345     0.07100
C474        C  0.32825255  0.26996290  0.86738491    -0.03000
Br475      Br  0.26318699  0.28700222  0.86065604    -0.01500
Br476      Br  0.28319897  0.23522001  0.80626248    -0.01600
Br477      Br  0.46583613  0.27834436  0.94163250    -0.01600
Br478      Br  0.47932272  0.21870241  0.89599526    -0.01500
C479        C  0.23009702  0.39331771  0.65195280    -0.02700
C480        C  0.18120760  0.39194855  0.62937517     0.07000
C481        C  0.14620955  0.41233210  0.63693870    -0.02800
C482        C  0.16274485  0.43754425  0.65788769    -0.02800
C483        C  0.21213591  0.43991670  0.67787259     0.07100
C484        C  0.24472362  0.41677656  0.67655733    -0.03000
Br485      Br  0.30795532  0.41591433  0.71079296    -0.01500
Br486      Br  0.27709734  0.36236825  0.65256677    -0.01600
Br487      Br  0.11686443  0.46892505  0.65872705    -0.01600
Br488      Br  0.07545868  0.40255807  0.63032144    -0.01500
C489        C  0.05677240  0.34932611  0.98203544    -0.02700
C490        C  0.05815929  0.35038315  0.51890705     0.07000
C491        C  0.01289852  0.34975405  0.53184903    -0.02800
C492        C  0.46622216  0.35014638  0.50782077    -0.02800
C493        C  0.46478755  0.35018024  0.97102873     0.07100
C494        C  0.50995496  0.34923200  0.95799422    -0.03000
Br495      Br  0.50836103  0.34516385  0.90722164    -0.01500
Br496      Br  0.11738043  0.34812202  0.96331475    -0.01600
Br497      Br  0.40621615  0.35168356  0.52709927    -0.01600
Br498      Br  0.01374831  0.34439351  0.58247802    -0.01500
C499        C  0.24659254  0.31431930  0.01277217    -0.02700
C500        C  0.22826647  0.34130919  0.52277009     0.07000
C501        C  0.24366168  0.36772223  0.50746143    -0.02800
C502        C  0.28039356  0.36757838  0.48640539    -0.02800
C503        C  0.29544005  0.34099327  0.97378397     0.07100
C504        C  0.27744504  0.31412080  0.98668935    -0.03000
Br505      Br  0.29337154  0.27693251  0.96842311    -0.01500
Br506      Br  0.22954206  0.27780643  0.03440368    -0.01600
Br507      Br  0.31518963  0.40475441  0.48012997    -0.01600
Br508      Br  0.21095427  0.40440121  0.51132250    -0.01500
C509        C  0.09461163  0.10751092  0.60891394    -0.02700
C510        C  0.05938415  0.12603622  0.61941499     0.07000
C511        C  0.00803946  0.12094093  0.60282332    -0.02800
C512        C  0.99192274  0.09476017  0.58332006    -0.02800
C513        C  0.02733167  0.07468855  0.57624950     0.07100
C514        C  0.07884480  0.08103017  0.59035210    -0.03000
Br515      Br  0.12949113  0.05297555  0.58680856    -0.01500
Br516      Br  0.16239127  0.12138929  0.60904237    -0.01600
Br517      Br  0.42074418  0.08708298  0.56742678    -0.01600
Br518      Br  0.45993373  0.15159750  0.60101525    -0.01500
C519        C  0.19259610  0.17515494  0.76080729    -0.02700
C520        C  0.18901453  0.17281536  0.72332838     0.07000
C521        C  0.23401638  0.17032779  0.71025462    -0.02800
C522        C  0.28057039  0.16771977  0.73424272    -0.02800
C523        C  0.28274095  0.16681304  0.77151776     0.07100
C524        C  0.23808465  0.16967210  0.78463739    -0.03000
Br525      Br  0.23874804  0.16772304  0.83561859    -0.01500
Br526      Br  0.13876087  0.18995558  0.78053350    -0.01600
Br527      Br  0.34118912  0.16383161  0.71594515    -0.01600
Br528      Br  0.23376087  0.17486579  0.65973639    -0.01500
C529        C  0.49029519  0.20393046  0.72844394    -0.02700
C530        C  0.02175131  0.18044012  0.72568331     0.07000
C531        C  0.02763835  0.15865007  0.75259996    -0.02800
C532        C  0.00556634  0.16169043  0.78259101    -0.02800
C533        C  0.46439600  0.18034863  0.78117027     0.07100
C534        C  0.46156679  0.20403915  0.75595667    -0.03000
Br535      Br  0.43004909  0.24017110  0.76309212    -0.01500
Br536      Br  0.48520803  0.23520775  0.69346347    -0.01600
Br537      Br  0.04833064  0.15200937  0.82814937    -0.00800
Br538      Br  0.06850210  0.12502415  0.75061042    -0.01500
C539        C  0.15271780  0.24935130  0.65038932    -0.02700
C540        C  0.10565072  0.23445637  0.63817562     0.07000
C541        C  0.07330803  0.24568656  0.60742803    -0.02800
C542        C  0.08881133  0.26979866  0.58808321    -0.02800
C543        C  0.13544719  0.28479377  0.60078867     0.07100
C544        C  0.16836051  0.27296088  0.63053750    -0.03000
Br545      Br  0.23753727  0.28724156  0.64184582    -0.01500
Br546      Br  0.19565866  0.24055128  0.69564043    -0.01600
Br547      Br  0.04722335  0.27960461  0.54265328    -0.01600
Br548      Br  0.00498212  0.23014639  0.59371830    -0.01500
C549        C  0.34011859  0.58970550  0.88629973    -0.02700
C550        C  0.32623422  0.61907713  0.87678239     0.07000
C551        C  0.29360069  0.62317618  0.84278804    -0.02800
C552        C  0.28815186  0.60144550  0.81614226    -0.02800
C553        C  0.30490225  0.57307902  0.82495021     0.07100
C554        C  0.32948626  0.56693134  0.86031637    -0.03000
Br555      Br  0.34750707  0.52697295  0.87298682    -0.01500
Br556      Br  0.36569389  0.57871839  0.93555559    -0.01600
Br557      Br  0.25897825  0.61103707  0.76704977    -0.01600
Br558      Br  0.24552695  0.65417041  0.83427899    -0.01500
C559        C  0.46160189  0.89704155  0.89670860    -0.02700
C560        C  0.41255810  0.89461975  0.87458529     0.07000
C561        C  0.37614445  0.91364525  0.88322814    -0.02800
C562        C  0.39129260  0.93872402  0.90494864    -0.02800
C563        C  0.44099851  0.94220780  0.92449173     0.07100
C564        C  0.47567733  0.92065858  0.92110111    -0.03000
Br565      Br  0.04170304  0.92181710  0.95224669    -0.01500
Br566      Br  0.00772574  0.86554271  0.89987635    -0.01600
Br567      Br  0.34298693  0.96845664  0.90719195    -0.01600
Br568      Br  0.30594646  0.90159412  0.87771677    -0.01500
C569        C  0.34642731  0.78135295  0.88563023    -0.02700
C570        C  0.37778450  0.78590381  0.86017912     0.07000
C571        C  0.40245269  0.76176857  0.84946819    -0.02800
C572        C  0.39523516  0.73340196  0.86320336    -0.02800
C573        C  0.36388681  0.72891454  0.88864704     0.07100
C574        C  0.33878015  0.75292399  0.89900736    -0.03000
Br575      Br  0.28961949  0.74660244  0.92883297    -0.01500
Br576      Br  0.31081400  0.81332296  0.90149121    -0.01600
Br577      Br  0.43113813  0.70137359  0.84768684    -0.01600
Br578      Br  0.45005463  0.76752362  0.81832895    -0.01500
C579        C  0.16523888  0.59032507  0.68290155    -0.02700
C580        C  0.20045569  0.57029812  0.67562891     0.07000
C581        C  0.21328379  0.57107268  0.64142035    -0.02800
C582        C  0.19553597  0.59345617  0.61664665    -0.02800
C583        C  0.17022964  0.61770300  0.62739730     0.07100
C584        C  0.14957712  0.61344705  0.65867361    -0.03000
Br585      Br  0.09300675  0.63491555  0.66612371    -0.01500
Br586      Br  0.13703338  0.58649516  0.72578370    -0.01600
Br587      Br  0.19762305  0.58687971  0.56658243    -0.01600
Br588      Br  0.25150316  0.53992732  0.62684475    -0.01500
C589        C  0.00671753  0.65322800  0.53383427    -0.02700
C590        C  0.05048292  0.66889756  0.52682956     0.07000
C591        C  0.04441886  0.68829110  0.99461312    -0.02800
C592        C  0.49661961  0.69018943  0.97188979    -0.02800
C593        C  0.45678146  0.67082175  0.97611090     0.07100
C594        C  0.46198780  0.65137239  0.50756232    -0.03000
Br595      Br  0.40679558  0.62535093  0.51475557    -0.01500
Br596      Br  0.00223263  0.63726319  0.58049305    -0.01600
Br597      Br  0.48567442  0.72011560  0.93539138    -0.01600
Br598      Br  0.09816069  0.70990076  0.97808442    -0.01500
C599        C  0.20663300  0.66995341  0.99569184    -0.02700
C600        C  0.22438761  0.67991854  0.53120593     0.07000
C601        C  0.27553983  0.68936663  0.54049350    -0.02800
C602        C  0.30690130  0.68877824  0.51478130    -0.02800
C603        C  0.28759472  0.68041669  0.97829272     0.07100
C604        C  0.23523151  0.67362926  0.96898979    -0.03000
Br605      Br  0.19987096  0.67130306  0.91943431    -0.01500
Br606      Br  0.14911628  0.64284600  0.98559164    -0.01600
Br607      Br  0.37687878  0.69980894  0.53105816    -0.01600
Br608      Br  0.30469406  0.69914338  0.59000302    -0.01500
C609        C  0.03182023  0.89002300  0.58570372    -0.02700
C610        C  0.06441892  0.89463538  0.61989961     0.07000
C611        C  0.07323503  0.92444017  0.63207292    -0.02800
C612        C  0.06075454  0.94803033  0.60780421    -0.02800
C613        C  0.03733675  0.94244267  0.57185797     0.07100
C614        C  0.02129145  0.91348670  0.56128507    -0.03000
Br615      Br  0.48084161  0.90627343  0.51396903    -0.01500
Br616      Br  0.49072911  0.85417101  0.57442488    -0.01600
Br617      Br  0.07053156  0.98832905  0.62445502    -0.01600
Br618      Br  0.09170698  0.93418445  0.68270795    -0.01500
C619        C  0.28161431  0.86265844  0.74007250    -0.02700
C620        C  0.28812409  0.84430033  0.77041580     0.07000
C621        C  0.24844088  0.82489899  0.77493521    -0.02800
C622        C  0.20042753  0.82657687  0.75245211    -0.02800
C623        C  0.19327688  0.84472053  0.72086788     0.07100
C624        C  0.23690787  0.86043828  0.71371940    -0.03000
Br625      Br  0.24182914  0.87500358  0.66649582    -0.01500
Br626      Br  0.33539134  0.89005788  0.73356784    -0.01600
Br627      Br  0.14742151  0.80438942  0.76924335    -0.01600
Br628      Br  0.25943435  0.79565007  0.81228090    -0.01500
C629        C  0.03791550  0.84386738  0.75388354    -0.02700
C630        C  0.01894261  0.83426772  0.71848891     0.07000
C631        C  0.46736097  0.82578583  0.70887769    -0.02800
C632        C  0.43623147  0.82600802  0.73478843    -0.02800
C633        C  0.45683559  0.83391864  0.77126321     0.07100
C634        C  0.00939997  0.83967940  0.78047499    -0.03000
Br635      Br  0.04576575  0.83755038  0.82919917    -0.01500
Br636      Br  0.09576421  0.87066939  0.76475436    -0.01600
Br637      Br  0.36610895  0.81562365  0.71827186    -0.01600
Br638      Br  0.43765253  0.81776633  0.65896495    -0.01500
C639        C  0.14922488  0.78277441  0.61729446    -0.02700
C640        C  0.10920902  0.78574554  0.63560659     0.07000
C641        C  0.08130294  0.76015774  0.64197605    -0.02800
C642        C  0.09252370  0.73233736  0.62988923    -0.02800
C643        C  0.13369764  0.72903009  0.61288642     0.07100
C644        C  0.16114931  0.75475963  0.60594319    -0.03000
Br645      Br  0.21530342  0.75230458  0.58058004    -0.01500
Br646      Br  0.18992991  0.81672494  0.60874774    -0.01600
Br647      Br  0.04666968  0.69974096  0.63291445    -0.01600
Br648      Br  0.02566180  0.76290215  0.66596495    -0.01500
C649        C  0.58880699  0.86987889  0.14736234     0.85700
C650        C  0.54857622  0.86380129  0.16978670    -0.54600
C651        C  0.55581286  0.83996156  0.19181993     0.08600
C652        C  0.60434321  0.82337482  0.18895800     0.19500
C653        C  0.63753862  0.87178796  0.17725282    -0.55300
C654        C  0.64824612  0.84668301  0.19776130     0.08700
C655        C  0.59309165  0.84088302  0.12756999    -0.54800
C656        C  0.60111210  0.81658286  0.14885138     0.09300
H657        H  0.51793483  0.87846229  0.16974480     0.13800
H658        H  0.60878207  0.80279072  0.20418566    -0.00500
H659        H  0.66028654  0.89155490  0.18435704     0.14100
H660        H  0.59071632  0.83986743  0.09870317     0.13900
C661        C  0.66116364  0.64661576  0.10330955     0.85700
C662        C  0.65667491  0.67615757  0.12265579    -0.54600
C663        C  0.64663954  0.69989193  0.10015930     0.08600
C664        C  0.64377036  0.69203036  0.06040395     0.19500
C665        C  0.61331964  0.64340240  0.07375693    -0.55300
C666        C  0.60140079  0.66771194  0.05233634     0.08700
C667        C  0.70315506  0.65413874  0.08293545    -0.54800
C668        C  0.69374696  0.67656436  0.05901550     0.09300
H669        H  0.66155478  0.67842515  0.15156880     0.13800
H670        H  0.63796601  0.71213158  0.04428699    -0.00500
H671        H  0.59129340  0.62286876  0.07014468     0.14100
H672        H  0.73730235  0.64199754  0.08598606     0.13900
C673        C  0.90588068  0.86775217  0.34900643     0.85700
C674        C  0.94197434  0.86320878  0.32312230    -0.54600
C675        C  0.93076823  0.83896986  0.30076923     0.08600
C676        C  0.88218477  0.82175477  0.30672619     0.19500
C677        C  0.85481245  0.86923997  0.32258281    -0.55300
C678        C  0.84141912  0.84503138  0.30131347     0.08700
C679        C  0.90450288  0.83850953  0.36880414    -0.54800
C680        C  0.89132918  0.81447206  0.34741921     0.09300
H681        H  0.97311766  0.87860407  0.32193011     0.13800
H682        H  0.87110646  0.80192921  0.28978805    -0.00500
H683        H  0.83244468  0.88863976  0.31851826     0.14100
H684        H  0.91343167  0.83706558  0.39794218     0.13900
C685        C  0.84277696  0.64421056  0.40319210     0.85700
C686        C  0.84426477  0.67370916  0.38339761    -0.54600
C687        C  0.85707157  0.69771929  0.40471367     0.08600
C688        C  0.86716525  0.69026259  0.44523317     0.19500
C689        C  0.89610744  0.64367076  0.42673278    -0.55300
C690        C  0.90848043  0.66731056  0.44948497     0.08700
C691        C  0.80856427  0.64834243  0.42997391    -0.54800
C692        C  0.81941617  0.67273312  0.45176669     0.09300
H693        H  0.83876375  0.67547198  0.35443406     0.13800
H694        H  0.87822409  0.71015005  0.46202038    -0.00500
H695        H  0.92218027  0.62639989  0.42562888     0.14100
H696        H  0.77849959  0.63238618  0.43191190     0.13900
C697        C  0.57332531  0.15163031  0.14669457     0.85700
C698        C  0.57969721  0.18155997  0.12935061    -0.54600
C699        C  0.59289733  0.20464449  0.15276813     0.08600
C700        C  0.59856497  0.19515459  0.19273458     0.19500
C701        C  0.62349806  0.14778777  0.17371977    -0.55300
C702        C  0.63795408  0.17080298  0.19726859     0.08700
C703        C  0.53644009  0.15581602  0.17172995    -0.54800
C704        C  0.54850537  0.17838044  0.19560070     0.09300
H705        H  0.57629947  0.18394841  0.10048133     0.13800
H706        H  0.60820366  0.21376568  0.21188735    -0.00500
H707        H  0.64573891  0.12838116  0.17469790     0.14100
H708        H  0.50530149  0.14037513  0.17284952     0.13900
C709        C  0.66742241  0.36789927  0.09980369     0.85700
C710        C  0.70832542  0.36378138  0.07798318    -0.54600
C711        C  0.69768112  0.34269321  0.05167668     0.08600
C712        C  0.64623746  0.32623406  0.05067284     0.19500
C713        C  0.62076025  0.37323968  0.07007071    -0.55300
C714        C  0.60820915  0.35101220  0.04547643     0.08700
C715        C  0.65779468  0.33735114  0.11464234    -0.54800
C716        C  0.64721510  0.31523705  0.08957947     0.09300
H717        H  0.74194490  0.37801155  0.08142425     0.13800
H718        H  0.63710802  0.30878785  0.02985421    -0.00500
H719        H  0.59935991  0.39299372  0.06760134     0.14100
H720        H  0.65873486  0.33358155  0.14305375     0.13900
C721        C  0.88729757  0.14213218  0.34774826     0.85700
C722        C  0.88524666  0.17199765  0.36660696    -0.54600
C723        C  0.87707363  0.19576641  0.34405335     0.08600
C724        C  0.87319474  0.18732026  0.30419004     0.19500
C725        C  0.83925007  0.13925090  0.31936618    -0.55300
C726        C  0.83088453  0.16269278  0.29688168     0.08700
C727        C  0.92887445  0.14838903  0.32662174    -0.54800
C728        C  0.92397948  0.17223140  0.30391122     0.09300
H729        H  0.89178478  0.17453492  0.39557672     0.13800
H730        H  0.86394845  0.20576545  0.28558670    -0.00500
H731        H  0.81273973  0.12057446  0.31806871     0.14100
H732        H  0.95984885  0.13391394  0.32992620     0.13900
C733        C  0.85234508  0.36550866  0.39213968     0.85700
C734        C  0.81422857  0.36225156  0.41675399    -0.54600
C735        C  0.82445872  0.34186928  0.44361648     0.08600
C736        C  0.87292989  0.32513657  0.44241953     0.19500
C737        C  0.90235235  0.37127911  0.41931273    -0.55300
C738        C  0.91423109  0.34977665  0.44462110     0.08700
C739        C  0.85581172  0.33444590  0.37773592    -0.54800
C740        C  0.86586724  0.31299224  0.40349400     0.09300
H741        H  0.78238571  0.37632112  0.41422907     0.13800
H742        H  0.88225807  0.30824023  0.46365213    -0.00500
H743        H  0.92621179  0.39095742  0.41967084     0.14100
H744        H  0.85005198  0.32971805  0.34915179     0.13900
O745        O  0.74846848  0.47550479  0.29547161    -0.73800
O746        O  0.69254498  0.53509137  0.22112174    -0.74700
O747        O  0.69868100  0.47279295  0.22310840    -0.63400
O748        O  0.74339055  0.53772639  0.29434975    -0.71800
O749        O  0.81847486  0.53975576  0.27975157    -0.71300
O750        O  0.76967737  0.47861991  0.20329458    -0.62600
O751        O  0.76682179  0.54142459  0.20646148    -0.75100
O752        O  0.81943028  0.47668286  0.27556243    -0.73900
Cu753      Cu  0.71828638  0.50527465  0.25912304     1.04600
Cu754      Cu  0.79626098  0.50938537  0.24071669     1.04300
C755        C  0.79158342  0.46526796  0.29580917     0.92400
C756        C  0.72072815  0.54807560  0.20226655     0.91600
C757        C  0.72727095  0.46521446  0.20217920     0.83700
C758        C  0.78817452  0.54860423  0.29871422     0.90000
O759        O  0.92228830  0.03582539  0.47060485    -0.73800
O760        O  0.97279913  0.97548452  0.04520670    -0.74700
O761        O  0.96633506  0.03784348  0.04549204    -0.63400
O762        O  0.93130161  0.97383320  0.46966804    -0.71800
O763        O  0.50506460  0.98063929  0.45423028    -0.71300
O764        O  0.53942001  0.04258676  0.02905027    -0.62600
O765        O  0.54612490  0.97966185  0.02840053    -0.75100
O766        O  0.49706001  0.04256029  0.45669356    -0.73900
Cu767      Cu  0.94293512  0.00552360  0.00890808     1.04600
Cu768      Cu  0.52657223  0.01154663  0.49221156     1.04300
C769        C  0.95073150  0.04876824  0.45192438     0.92400
C770        C  0.51784561  0.96743567  0.04786952     0.91600
C771        C  0.50964475  0.05073313  0.04878101     0.83700
C772        C  0.96221455  0.96717452  0.44997421     0.90000
C773        C  0.77246912  0.41591331  0.32155158    -0.02700
C774        C  0.80780534  0.43895160  0.31825161     0.07000
C775        C  0.85893251  0.43488851  0.33319556    -0.02800
C776        C  0.87384628  0.40879742  0.35189714    -0.02800
C777        C  0.83777501  0.38884420  0.36209434     0.07100
C778        C  0.78706999  0.39126531  0.34350197    -0.03000
Br779      Br  0.73701483  0.36003688  0.34449262    -0.01500
Br780      Br  0.70431114  0.41648459  0.29378347    -0.01600
Br781      Br  0.94130765  0.39716356  0.35244473    -0.01600
Br782      Br  0.90984308  0.46492226  0.32920205    -0.01500
C783        C  0.89477621  0.09120816  0.43060978    -0.02700
C784        C  0.92960215  0.07062268  0.42405474     0.07000
C785        C  0.94067062  0.06939497  0.38935558    -0.02800
C786        C  0.92042242  0.08994367  0.36292407    -0.02800
C787        C  0.89545372  0.11474616  0.37238885     0.07100
C788        C  0.87688440  0.11267301  0.40464754    -0.03000
Br789      Br  0.82069997  0.13524939  0.41141703    -0.01500
Br790      Br  0.87144101  0.09096392  0.47526414    -0.01600
Br791      Br  0.91843359  0.08022949  0.31299724    -0.01600
Br792      Br  0.48076531  0.03841845  0.37668675    -0.01500
C793        C  0.83224815  0.24331800  0.34821947    -0.02700
C794        C  0.87538998  0.22645775  0.35829492     0.07000
C795        C  0.91521576  0.23774375  0.38534275    -0.02800
C796        C  0.91109907  0.26476316  0.40272554    -0.02800
C797        C  0.86750632  0.28131497  0.39268274     0.07100
C798        C  0.82709820  0.26919981  0.36704292    -0.03000
Br799      Br  0.76215979  0.28639158  0.36023474    -0.01500
Br800      Br  0.78110941  0.23364877  0.30682165    -0.01600
Br801      Br  0.96483770  0.27777650  0.44106154    -0.01600
Br802      Br  0.97806430  0.21784218  0.39583470    -0.01500
C803        C  0.73013762  0.39316413  0.15243269    -0.02700
C804        C  0.68135940  0.39157537  0.12978839     0.07000
C805        C  0.64612039  0.41194678  0.13695787    -0.02800
C806        C  0.66239282  0.43740986  0.15742438    -0.02800
C807        C  0.71175755  0.44005694  0.17738706     0.07100
C808        C  0.74454547  0.41691575  0.17659634    -0.03000
Br809      Br  0.80772339  0.41645075  0.21092689    -0.01500
Br810      Br  0.77712925  0.36211409  0.15373493    -0.01600
Br811      Br  0.61617689  0.46870866  0.15765694    -0.01600
Br812      Br  0.57549246  0.40186467  0.13061205    -0.01500
C813        C  0.55582198  0.34937614  0.48151147    -0.02700
C814        C  0.55912663  0.34997539  0.01943520     0.07000
C815        C  0.51392223  0.34928043  0.03243468    -0.02800
C816        C  0.96723856  0.35005115  0.00844783    -0.02800
C817        C  0.96374377  0.34992826  0.47038311     0.07100
C818        C  0.00896045  0.34898527  0.45741704    -0.03000
Br819      Br  0.00739361  0.34458207  0.40667692    -0.01500
Br820      Br  0.61643155  0.34823136  0.46279543    -0.01600
Br821      Br  0.90731434  0.35156720  0.02783621    -0.01600
Br822      Br  0.51480362  0.34338830  0.08299700    -0.01500
C823        C  0.74579113  0.31438088  0.51242848    -0.02700
C824        C  0.72918725  0.34117475  0.02342214     0.07000
C825        C  0.74462224  0.36770516  0.00838483    -0.02800
C826        C  0.78144796  0.36773339  0.98741392    -0.02800
C827        C  0.79441275  0.34074368  0.47302551     0.07100
C828        C  0.77660715  0.31397510  0.48632241    -0.03000
Br829      Br  0.79280870  0.27663497  0.46861575    -0.01500
Br830      Br  0.72895447  0.27805551  0.53455361    -0.01600
Br831      Br  0.81635712  0.40495914  0.98157706    -0.01600
Br832      Br  0.71178800  0.40431370  0.01241679    -0.01500
C833        C  0.59176879  0.11018620  0.10541422    -0.02700
C834        C  0.55653617  0.12693181  0.11846321     0.07000
C835        C  0.50499463  0.12117350  0.10301638    -0.02800
C836        C  0.48932987  0.09516072  0.08302335    -0.02800
C837        C  0.52522534  0.07607287  0.07428723     0.07100
C838        C  0.57683716  0.08392302  0.08619206    -0.03000
Br839      Br  0.62943681  0.05874530  0.07844494    -0.01500
Br840      Br  0.65765422  0.12648560  0.10400654    -0.01600
Br841      Br  0.91793153  0.08693940  0.06804634    -0.01600
Br842      Br  0.95602900  0.15126442  0.10246545    -0.01500
C843        C  0.69167250  0.17369107  0.26057018    -0.02700
C844        C  0.68805258  0.17157210  0.22303407     0.07000
C845        C  0.73311330  0.16898702  0.21003485    -0.02800
C846        C  0.77964206  0.16625050  0.23404351    -0.02800
C847        C  0.78182886  0.16537309  0.27130298     0.07100
C848        C  0.73711998  0.16803366  0.28438793    -0.03000
Br849      Br  0.73766913  0.16555546  0.33533601    -0.01500
Br850      Br  0.63819709  0.18867022  0.28052134    -0.01600
Br851      Br  0.84029416  0.16214492  0.21582657    -0.01600
Br852      Br  0.73329487  0.17388055  0.15969561    -0.01500
C853        C  0.99016382  0.20417512  0.22915671    -0.02700
C854        C  0.52127479  0.18052134  0.22601957     0.07000
C855        C  0.52664646  0.15837719  0.25247781    -0.02800
C856        C  0.50472063  0.16126906  0.28250876    -0.02800
C857        C  0.96367328  0.18005267  0.28127988     0.07100
C858        C  0.96113296  0.20399807  0.25649536    -0.03000
Br859      Br  0.92933672  0.23992333  0.26407008    -0.01500
Br860      Br  0.98597287  0.23597479  0.19493689    -0.01600
Br861      Br  0.54784904  0.15152209  0.32791503    -0.00800
Br862      Br  0.56667298  0.12447192  0.24990113    -0.01500
C863        C  0.65285951  0.24903346  0.15084256    -0.02700
C864        C  0.60538477  0.23456616  0.13880974     0.07000
C865        C  0.57312168  0.24596604  0.10814481    -0.02800
C866        C  0.58917778  0.26970954  0.08855187    -0.02800
C867        C  0.63603522  0.28444727  0.10120093     0.07100
C868        C  0.66879761  0.27254378  0.13098060    -0.03000
Br869      Br  0.73808958  0.28662033  0.14229246    -0.01500
Br870      Br  0.69607761  0.23963224  0.19576967    -0.01600
Br871      Br  0.54825197  0.27911511  0.04272393    -0.01600
Br872      Br  0.50433362  0.23105952  0.09474118    -0.01500
C873        C  0.83853960  0.58840627  0.38695989    -0.02700
C874        C  0.82521860  0.61787153  0.37753163     0.07000
C875        C  0.79290092  0.62223745  0.34350646    -0.02800
C876        C  0.78766223  0.60072719  0.31667333    -0.02800
C877        C  0.80392940  0.57226036  0.32534568     0.07100
C878        C  0.82777133  0.56577620  0.36079784    -0.03000
Br879      Br  0.84453022  0.52561151  0.37331732    -0.01500
Br880      Br  0.86349558  0.57720442  0.43623459    -0.01600
Br881      Br  0.75936071  0.61075555  0.26757188    -0.01600
Br882      Br  0.74497369  0.65330579  0.33517319    -0.01500
C883        C  0.97001078  0.89734095  0.39648067    -0.02700
C884        C  0.92014557  0.89352366  0.37619260     0.07000
C885        C  0.88358615  0.91204860  0.38533329    -0.02800
C886        C  0.89843162  0.93796531  0.40535176    -0.02800
C887        C  0.94878906  0.94293289  0.42311630     0.07100
C888        C  0.98458183  0.92222942  0.41875154    -0.03000
Br889      Br  0.55357171  0.92631176  0.44491636    -0.01500
Br890      Br  0.51644843  0.86588660  0.40083963    -0.01600
Br891      Br  0.84871265  0.96697642  0.40697428    -0.01600
Br892      Br  0.81477089  0.89827107  0.38314443    -0.01500
C893        C  0.85268000  0.78045299  0.38862717    -0.02700
C894        C  0.88343352  0.78460189  0.36268582     0.07000
C895        C  0.90588995  0.75999583  0.35093823    -0.02800
C896        C  0.89680492  0.73158418  0.36391036    -0.02800
C897        C  0.86549781  0.72747050  0.38947332     0.07100
C898        C  0.84256047  0.75195774  0.40082633    -0.03000
Br899      Br  0.79270313  0.74632279  0.43025875    -0.01500
Br900      Br  0.82148530  0.81307476  0.40718106    -0.01600
Br901      Br  0.93065629  0.69903536  0.34748139    -0.01600
Br902      Br  0.95346673  0.76514837  0.31965955    -0.01500
C903        C  0.66510090  0.59119321  0.18271317    -0.02700
C904        C  0.70002709  0.57096550  0.17541926     0.07000
C905        C  0.71273096  0.57168054  0.14115622    -0.02800
C906        C  0.69513791  0.59410702  0.11635635    -0.02800
C907        C  0.67006520  0.61847338  0.12706301     0.07100
C908        C  0.64958207  0.61436653  0.15845308    -0.03000
Br909      Br  0.59333303  0.63613301  0.16598666    -0.01500
Br910      Br  0.63705668  0.58751514  0.22565489    -0.01600
Br911      Br  0.69714902  0.58748713  0.06628573    -0.01600
Br912      Br  0.75055479  0.54037661  0.12652083    -0.01500
C913        C  0.50714577  0.65455586  0.03303118    -0.02700
C914        C  0.55097219  0.67024661  0.02620978     0.07000
C915        C  0.54395286  0.68673393  0.49505582    -0.02800
C916        C  0.99621696  0.68840321  0.47229179    -0.02800
C917        C  0.95628932  0.66922740  0.47682884     0.07100
C918        C  0.96253191  0.65265893  0.00663225    -0.03000
Br919      Br  0.90755863  0.62634270  0.01348980    -0.01500
Br920      Br  0.50229265  0.63874126  0.07969974    -0.01600
Br921      Br  0.98560820  0.71787318  0.43528184    -0.01600
Br922      Br  0.59775924  0.70816503  0.47837838    -0.01500
C923        C  0.70606383  0.66902729  0.49617969    -0.02700
C924        C  0.72517025  0.68050827  0.03090540     0.07000
C925        C  0.77645748  0.68967211  0.04028230    -0.02800
C926        C  0.80769264  0.68931199  0.01447456    -0.02800
C927        C  0.78693196  0.67960896  0.47870327     0.07100
C928        C  0.73459377  0.67268725  0.46944423    -0.03000
Br929      Br  0.69909360  0.67017629  0.41993515    -0.01500
Br930      Br  0.64921835  0.64139964  0.48646315    -0.01600
Br931      Br  0.87767852  0.70035475  0.03065988    -0.01600
Br932      Br  0.80591408  0.69880660  0.08993252    -0.01500
C933        C  0.52610813  0.89307621  0.09534940    -0.02700
C934        C  0.57368452  0.89550525  0.11992888     0.07000
C935        C  0.60409073  0.92145156  0.11688730    -0.02800
C936        C  0.58400152  0.94558590  0.09585551    -0.02800
C937        C  0.53665157  0.94307562  0.07284748     0.07100
C938        C  0.50853328  0.91635383  0.07186639    -0.03000
Br939      Br  0.94627537  0.91100245  0.03666185    -0.01500
Br940      Br  0.98422836  0.85718911  0.09041043    -0.01600
Br941      Br  0.62149897  0.98280821  0.09946679    -0.01600
Br942      Br  0.67585872  0.92374892  0.13204865    -0.01500
C943        C  0.78705846  0.86088061  0.24328856    -0.02700
C944        C  0.79315919  0.84316895  0.27411322     0.07000
C945        C  0.75285481  0.82432387  0.27913153    -0.02800
C946        C  0.70532298  0.82507208  0.25550372    -0.02800
C947        C  0.69873481  0.84302529  0.22381300     0.07100
C948        C  0.74273535  0.85814371  0.21679808    -0.03000
Br949      Br  0.74915881  0.86915908  0.16894585    -0.01500
Br950      Br  0.84050792  0.88835352  0.23633722    -0.01600
Br951      Br  0.65248127  0.80077373  0.26947611    -0.01600
Br952      Br  0.76217585  0.79764848  0.31919747    -0.01500
C953        C  0.54360710  0.84277389  0.25589475    -0.02700
C954        C  0.52405769  0.83512770  0.21980393     0.07000
C955        C  0.97241924  0.82683255  0.21013765    -0.02800
C956        C  0.94164516  0.82577389  0.23633631    -0.02800
C957        C  0.96245535  0.83255068  0.27300200     0.07100
C958        C  0.51497913  0.83768023  0.28236606    -0.03000
Br959      Br  0.55081744  0.83355155  0.33101936    -0.01500
Br960      Br  0.60323652  0.86793194  0.26861658    -0.01600
Br961      Br  0.87169573  0.81467164  0.22036244    -0.01600
Br962      Br  0.94167603  0.82021460  0.16034029    -0.01500
C963        C  0.65122382  0.78367672  0.11619486    -0.02700
C964        C  0.61188351  0.78694681  0.13511351     0.07000
C965        C  0.58314888  0.76161617  0.14121290    -0.02800
C966        C  0.59376791  0.73366009  0.12915376    -0.02800
C967        C  0.63499384  0.72999664  0.11231764     0.07100
C968        C  0.66278666  0.75550514  0.10515486    -0.03000
Br969      Br  0.71729212  0.75248534  0.08021072    -0.01500
Br970      Br  0.69093194  0.81742633  0.10557934    -0.01600
Br971      Br  0.54737120  0.70132051  0.13222307    -0.01600
Br972      Br  0.52673483  0.76499382  0.16423632    -0.01500
C973        C  0.58011498  0.86827531  0.64518627     0.85700
C974        C  0.54054809  0.86162378  0.66738641    -0.54600
C975        C  0.55012181  0.83870676  0.69035749     0.08600
C976        C  0.59967532  0.82308994  0.68795681     0.19500
C977        C  0.63004315  0.87147248  0.67330246    -0.55300
C978        C  0.64230051  0.84738273  0.69535972     0.08700
C979        C  0.58703380  0.83920614  0.62604213    -0.54800
C980        C  0.59644444  0.81540151  0.64812027     0.09300
H981        H  0.50861069  0.87543603  0.66667757     0.13800
H982        H  0.60558756  0.80285805  0.70375760    -0.00500
H983        H  0.65394198  0.89110648  0.67490607     0.14100
H984        H  0.58747171  0.83785165  0.59760087     0.13900
C985        C  0.66107429  0.64583963  0.60372510     0.85700
C986        C  0.65630706  0.67532947  0.62310234    -0.54600
C987        C  0.64589028  0.69904940  0.60062230     0.08600
C988        C  0.64297762  0.69119701  0.56084521     0.19500
C989        C  0.61320608  0.64241844  0.57429146    -0.55300
C990        C  0.60093863  0.66666039  0.55288703     0.08700
C991        C  0.70289109  0.65354504  0.58328161    -0.54800
C992        C  0.69313496  0.67594379  0.55936736     0.09300
H993        H  0.66118442  0.67755422  0.65202159     0.13800
H994        H  0.63678166  0.71127782  0.54469906    -0.00500
H995        H  0.59141752  0.62179779  0.57072752     0.14100
H996        H  0.73717590  0.64153925  0.58626852     0.13900
C997        C  0.89869342  0.86915947  0.84677875     0.85700
C998        C  0.93569331  0.86468695  0.82144045    -0.54600
C999        C  0.92505235  0.84043344  0.79895237     0.08600
C1000       C  0.87649181  0.82310456  0.80433657     0.19500
C1001       C  0.84825807  0.87057557  0.81961894    -0.55300
C1002       C  0.83571138  0.84633114  0.79821234     0.08700
C1003       C  0.89665578  0.83986864  0.86637407    -0.54800
C1004       C  0.88467524  0.81582985  0.84493627     0.09300
H1005       H  0.96674928  0.88022428  0.82058241     0.13800
H1006       H  0.86608735  0.80319351  0.78746746    -0.00500
H1007       H  0.82601115  0.88997943  0.81489679     0.14100
H1008       H  0.90447341  0.83834676  0.89552001     0.13900
C1009       C  0.84340645  0.64549297  0.90246632     0.85700
C1010       C  0.84427970  0.67503383  0.88272271    -0.54600
C1011       C  0.85668259  0.69906496  0.90407660     0.08600
C1012       C  0.86727337  0.69158348  0.94459712     0.19500
C1013       C  0.89688257  0.64525677  0.92584349    -0.55300
C1014       C  0.90900576  0.66887345  0.94866964     0.08700
C1015       C  0.80930581  0.64935630  0.92941953    -0.54800
C1016       C  0.81994833  0.67373045  0.95127266     0.09300
H1017       H  0.83875732  0.67684714  0.85375733     0.13800
H1018       H  0.87797731  0.71149942  0.96141327    -0.00500
H1019       H  0.92321777  0.62815496  0.92463117     0.14100
H1020       H  0.77941993  0.63328194  0.93138504     0.13900
C1021       C  0.57553402  0.15126369  0.64715664     0.85700
C1022       C  0.58134872  0.18112543  0.62933579    -0.54600
C1023       C  0.59361659  0.20453973  0.65240558     0.08600
C1024       C  0.59901209  0.19543671  0.69248285     0.19500
C1025       C  0.62541302  0.14809194  0.67462122    -0.55300
C1026       C  0.63903679  0.17147116  0.69764033     0.08700
C1027       C  0.53805993  0.15542407  0.67180418    -0.54800
C1028       C  0.54928652  0.17827205  0.69537078     0.09300
H1029       H  0.57825141  0.18324354  0.60046514     0.13800
H1030       H  0.60796918  0.21426354  0.71136780    -0.00500
H1031       H  0.64791568  0.12874986  0.67670290     0.14100
H1032       H  0.50703268  0.13985400  0.67276813     0.13900
C1033       C  0.66684876  0.36834224  0.59924205     0.85700
C1034       C  0.70754337  0.36418606  0.57724050    -0.54600
C1035       C  0.69676575  0.34304661  0.55100219     0.08600
C1036       C  0.64531427  0.32663209  0.55014460     0.19500
C1037       C  0.62002499  0.37368845  0.56959212    -0.55300
C1038       C  0.60730980  0.35144213  0.54498660     0.08700
C1039       C  0.65721605  0.33779026  0.61411085    -0.54800
C1040       C  0.64644484  0.31565111  0.58908266     0.09300
H1041       H  0.74116118  0.37840652  0.58054457     0.13800
H1042       H  0.63609804  0.30916121  0.52935895    -0.00500
H1043       H  0.59869073  0.39346472  0.56715890     0.14100
H1044       H  0.65834153  0.33403569  0.64254693     0.13900
C1045       C  0.88759475  0.14301522  0.84807722     0.85700
C1046       C  0.88613361  0.17295958  0.86684902    -0.54600
C1047       C  0.87834895  0.19670698  0.84423277     0.08600
C1048       C  0.87440385  0.18817631  0.80441015     0.19500
C1049       C  0.83956949  0.14041183  0.81963390    -0.55300
C1050       C  0.83171238  0.16383718  0.79709523     0.08700
C1051       C  0.92943615  0.14892161  0.82695542    -0.54800
C1052       C  0.92487114  0.17277251  0.80411369     0.09300
H1053       H  0.89271080  0.17556380  0.89580713     0.13800
H1054       H  0.86540456  0.20663099  0.78581539    -0.00500
H1055       H  0.81266066  0.12193784  0.81834345     0.14100
H1056       H  0.95992269  0.13433730  0.83030149     0.13900
C1057       C  0.85329948  0.36608929  0.89302485     0.85700
C1058       C  0.81530927  0.36283250  0.91772979    -0.54600
C1059       C  0.82551974  0.34233315  0.94444145     0.08600
C1060       C  0.87391337  0.32559670  0.94310910     0.19500
C1061       C  0.90339626  0.37178386  0.92010632    -0.55300
C1062       C  0.91524607  0.35021361  0.94533532     0.08700
C1063       C  0.85664425  0.33507880  0.87848709    -0.54800
C1064       C  0.86674824  0.31357282  0.90415047     0.09300
H1065       H  0.78355542  0.37695354  0.91536117     0.13800
H1066       H  0.88322893  0.30862901  0.96425762    -0.00500
H1067       H  0.92736126  0.39141475  0.92039129     0.14100
H1068       H  0.85085188  0.33043228  0.84988026     0.13900
O1069       O  0.74973011  0.47596253  0.79637468    -0.73800
O1070       O  0.69330249  0.53464992  0.72142605    -0.74700
O1071       O  0.69965921  0.47249627  0.72403224    -0.63400
O1072       O  0.74434561  0.53818680  0.79445877    -0.71800
O1073       O  0.81940341  0.54000712  0.77984006    -0.71300
O1074       O  0.77038674  0.47834833  0.70389007    -0.62600
O1075       O  0.76752038  0.54111386  0.70669315    -0.75100
O1076       O  0.82042719  0.47685282  0.77613163    -0.73900
Cu1077     Cu  0.71929404  0.50531165  0.75970683     1.04600
Cu1078     Cu  0.79711228  0.50932983  0.74109508     1.04300
C1079       C  0.79272958  0.46563688  0.79659428     0.92400
C1080       C  0.72136917  0.54760177  0.70249186     0.91600
C1081       C  0.72800127  0.46494020  0.70290441     0.83700
C1082       C  0.78908358  0.54912967  0.79863388     0.90000
O1083       O  0.91744642  0.03577036  0.97108198    -0.73800
O1084       O  0.97530084  0.97477512  0.54347390    -0.74700
O1085       O  0.96879771  0.03706518  0.54545184    -0.63400
O1086       O  0.92540612  0.97345155  0.97152605    -0.71800
O1087       O  0.49824885  0.97975307  0.95443028    -0.71300
O1088       O  0.54292953  0.04248697  0.53039283    -0.62600
O1089       O  0.55042868  0.97964030  0.52898881    -0.75100
O1090       O  0.49166875  0.04175477  0.95602788    -0.73900
Cu1091     Cu  0.94686860  0.00526426  0.50781383     1.04600
Cu1092     Cu  0.52148101  0.01110522  0.99158316     1.04300
C1093       C  0.94552311  0.04829828  0.95175910     0.92400
C1094       C  0.52077330  0.96706267  0.54718259     0.91600
C1095       C  0.51235051  0.05003126  0.54982325     0.83700
C1096       C  0.95535263  0.96644887  0.95124904     0.90000
C1097       C  0.77337065  0.41653303  0.82267953    -0.02700
C1098       C  0.80888820  0.43939279  0.81909424     0.07000
C1099       C  0.86005042  0.43515967  0.83372009    -0.02800
C1100       C  0.87481895  0.40910617  0.85251695    -0.02800
C1101       C  0.83868100  0.38940007  0.86303454     0.07100
C1102       C  0.78791199  0.39191223  0.84464823    -0.03000
Br1103     Br  0.73769644  0.36079617  0.84583978    -0.01500
Br1104     Br  0.70502346  0.41725222  0.79523910    -0.01600
Br1105     Br  0.94199286  0.39712427  0.85278784    -0.01600
Br1106     Br  0.91122095  0.46485367  0.82906533    -0.01500
C1107       C  0.89117728  0.09151505  0.93045184    -0.02700
C1108       C  0.92474990  0.07021923  0.92381772     0.07000
C1109       C  0.93624061  0.06894114  0.88924057    -0.02800
C1110       C  0.91815262  0.09023343  0.86313024    -0.02800
C1111       C  0.89467274  0.11556744  0.87279279     0.07100
C1112       C  0.87527792  0.11362161  0.90480750    -0.03000
Br1113     Br  0.82056051  0.13738901  0.91173727    -0.01500
Br1114     Br  0.86682310  0.09123401  0.97475626    -0.01600
Br1115     Br  0.91706590  0.08097033  0.81320000    -0.01600
Br1116     Br  0.47412062  0.03692794  0.87628377    -0.01500
C1117       C  0.83366274  0.24430893  0.84824849    -0.02700
C1118       C  0.87674369  0.22740672  0.85839282     0.07000
C1119       C  0.91643739  0.23857953  0.88559772    -0.02800
C1120       C  0.91217934  0.26547758  0.90316344    -0.02800
C1121       C  0.86851102  0.28197236  0.89319998     0.07100
C1122       C  0.82825031  0.26996955  0.86736416    -0.03000
Br1123     Br  0.76318002  0.28700554  0.86061641    -0.01500
Br1124     Br  0.78323388  0.23522932  0.80623146    -0.01600
Br1125     Br  0.96582233  0.27836286  0.94162576    -0.01600
Br1126     Br  0.97932181  0.21871299  0.89600852    -0.01500
C1127       C  0.73008729  0.39333853  0.65193541    -0.02700
C1128       C  0.68120335  0.39196901  0.62935090     0.07000
C1129       C  0.64619894  0.41235147  0.63690690    -0.02800
C1130       C  0.66272706  0.43756452  0.65785452    -0.02800
C1131       C  0.71211238  0.43993615  0.67784853     0.07100
C1132       C  0.74470272  0.41679599  0.67654224    -0.03000
Br1133     Br  0.80792002  0.41593113  0.71079353    -0.01500
Br1134     Br  0.77709485  0.36239223  0.65255471    -0.01600
Br1135     Br  0.61684456  0.46894621  0.65868114    -0.01600
Br1136     Br  0.57544855  0.40257396  0.63028672    -0.01500
C1137       C  0.55679834  0.34929967  0.98206052    -0.02700
C1138       C  0.55817049  0.35038300  0.51889590     0.07000
C1139       C  0.51291587  0.34974617  0.53184569    -0.02800
C1140       C  0.96620951  0.35016054  0.50781781    -0.02800
C1141       C  0.96476042  0.35019564  0.97101093     0.07100
C1142       C  0.00992582  0.34925388  0.95797246    -0.03000
Br1143     Br  0.00832631  0.34518436  0.90719977    -0.01500
Br1144     Br  0.61740794  0.34808579  0.96334372    -0.01600
Br1145     Br  0.90619665  0.35169790  0.52708802    -0.01600
Br1146     Br  0.51378227  0.34438125  0.58247622    -0.01500
C1147       C  0.74659831  0.31430552  0.01278295    -0.02700
C1148       C  0.72827746  0.34132680  0.52275482     0.07000
C1149       C  0.74366439  0.36773989  0.50744235    -0.02800
C1150       C  0.78039204  0.36759695  0.48638369    -0.02800
C1151       C  0.79542214  0.34098754  0.97378504     0.07100
C1152       C  0.77743664  0.31411248  0.98669038    -0.03000
Br1153     Br  0.79335559  0.27692834  0.96840893    -0.01500
Br1154     Br  0.72956067  0.27778854  0.03441126    -0.01600
Br1155     Br  0.81518551  0.40477360  0.48010690    -0.01600
Br1156     Br  0.71095196  0.40441728  0.51130195    -0.01500
C1157       C  0.59470887  0.10761941  0.60883334    -0.02700
C1158       C  0.55945351  0.12609004  0.61939172     0.07000
C1159       C  0.50811220  0.12096961  0.60281405    -0.02800
C1160       C  0.49203504  0.09479357  0.58329182    -0.02800
C1161       C  0.52747725  0.07475596  0.57618719     0.07100
C1162       C  0.57899009  0.08114296  0.59024766    -0.03000
Br1163     Br  0.62971234  0.05316326  0.58661261    -0.01500
Br1164     Br  0.66243795  0.12157812  0.60893412    -0.01600
Br1165     Br  0.92062592  0.08707970  0.56744798    -0.01600
Br1166     Br  0.95990929  0.15159864  0.60099412    -0.01500
C1167       C  0.69262652  0.17518085  0.76080802    -0.02700
C1168       C  0.68905332  0.17285476  0.72332863     0.07000
C1169       C  0.73405994  0.17037292  0.71025981    -0.02800
C1170       C  0.78060629  0.16774458  0.73425021    -0.02800
C1171       C  0.78276660  0.16682184  0.77152323     0.07100
C1172       C  0.73810830  0.16968545  0.78463951    -0.03000
Br1173     Br  0.73876314  0.16773592  0.83561923    -0.01500
Br1174     Br  0.63879569  0.18998753  0.78053512    -0.01600
Br1175     Br  0.84122780  0.16385084  0.71595712    -0.01600
Br1176     Br  0.73382669  0.17495303  0.65975112    -0.01500
C1177       C  0.99032208  0.20392372  0.72847993    -0.02700
C1178       C  0.52176509  0.18046041  0.72567754     0.07000
C1179       C  0.52766315  0.15868387  0.75260920    -0.02800
C1180       C  0.50556998  0.16172891  0.78258939    -0.02800
C1181       C  0.96442339  0.18032959  0.78119823     0.07100
C1182       C  0.96161709  0.20403368  0.75600584    -0.03000
Br1183     Br  0.93017722  0.24018031  0.76319745    -0.01500
Br1184     Br  0.98525956  0.23521946  0.69352473    -0.01600
Br1185     Br  0.54832003  0.15208000  0.82816553    -0.00800
Br1186     Br  0.56855197  0.12506553  0.75064658    -0.01500
C1187       C  0.65272393  0.24939267  0.65040300    -0.02700
C1188       C  0.60565503  0.23449996  0.63819236     0.07000
C1189       C  0.57331770  0.24572211  0.60743704    -0.02800
C1190       C  0.58883174  0.26982133  0.58807877    -0.02800
C1191       C  0.63546876  0.28481506  0.60078129     0.07100
C1192       C  0.66837605  0.27299023  0.63053870    -0.03000
Br1193     Br  0.73755681  0.28726326  0.64184056    -0.01500
Br1194     Br  0.69565128  0.24060766  0.69566548    -0.01600
Br1195     Br  0.54726589  0.27960315  0.54263099    -0.01600
Br1196     Br  0.50498953  0.23018389  0.59372796    -0.01500
C1197       C  0.84006113  0.58968208  0.88631695    -0.02700
C1198       C  0.82617665  0.61905581  0.87680973     0.07000
C1199       C  0.79354769  0.62316220  0.84281622    -0.02800
C1200       C  0.78810532  0.60143923  0.81616218    -0.02800
C1201       C  0.80485057  0.57307044  0.82496087     0.07100
C1202       C  0.82942800  0.56691375  0.86032581    -0.03000
Br1203     Br  0.84744040  0.52695148  0.87298267    -0.01500
Br1204     Br  0.86564222  0.57868348  0.93556741    -0.01600
Br1205     Br  0.75895863  0.61104727  0.76707083    -0.01600
Br1206     Br  0.74547282  0.65415560  0.83431857    -0.01500
C1207       C  0.96156669  0.89704158  0.89677044    -0.02700
C1208       C  0.91252499  0.89461349  0.87464365     0.07000
C1209       C  0.87610003  0.91362704  0.88329425    -0.02800
C1210       C  0.89123288  0.93870410  0.90502493    -0.02800
C1211       C  0.94094604  0.94220550  0.92455408     0.07100
C1212       C  0.97563458  0.92066285  0.92115931    -0.03000
Br1213     Br  0.54174364  0.92180080  0.95219212    -0.01500
Br1214     Br  0.50775821  0.86554357  0.89979831    -0.01600
Br1215     Br  0.84289353  0.96840858  0.90730481    -0.01600
Br1216     Br  0.80590582  0.90156109  0.87776258    -0.01500
C1217       C  0.84645489  0.78133781  0.88571085    -0.02700
C1218       C  0.87780163  0.78589121  0.86025164     0.07000
C1219       C  0.90246360  0.76175511  0.84953511    -0.02800
C1220       C  0.89522383  0.73338363  0.86325280    -0.02800
C1221       C  0.86387053  0.72889263  0.88869299     0.07100
C1222       C  0.83878403  0.75290429  0.89906806    -0.03000
Br1223     Br  0.78961270  0.74657978  0.92888493    -0.01500
Br1224     Br  0.81090466  0.81331062  0.90163052    -0.01600
Br1225     Br  0.93110470  0.70135296  0.84772008    -0.01600
Br1226     Br  0.95010888  0.76751992  0.81842952    -0.01500
C1227       C  0.66525284  0.59035318  0.68289878    -0.02700
C1228       C  0.70045614  0.57031920  0.67562383     0.07000
C1229       C  0.71328496  0.57109138  0.64141565    -0.02800
C1230       C  0.69554731  0.59347731  0.61664250    -0.02800
C1231       C  0.67025572  0.61773007  0.62739413     0.07100
C1232       C  0.64960649  0.61347966  0.65867385    -0.03000
Br1233     Br  0.59305708  0.63496084  0.66613597    -0.01500
Br1234     Br  0.63703947  0.58652258  0.72577811    -0.01600
Br1235     Br  0.69762327  0.58689627  0.56657733    -0.01600
Br1236     Br  0.75148802  0.53993842  0.62683941    -0.01500
C1237       C  0.50673498  0.65323344  0.53383934    -0.02700
C1238       C  0.55048989  0.66890837  0.52682504     0.07000
C1239       C  0.54442292  0.68835748  0.99463165    -0.02800
C1240       C  0.99659909  0.69014241  0.97189897    -0.02800
C1241       C  0.95676313  0.67077517  0.97612532     0.07100
C1242       C  0.96197277  0.65137908  0.50755312    -0.03000
Br1243     Br  0.90675626  0.62537379  0.51473836    -0.01500
Br1244     Br  0.50226256  0.63728053  0.58050621    -0.01600
Br1245     Br  0.98563027  0.72009578  0.93543551    -0.01600
Br1246     Br  0.59817870  0.70997551  0.97812991    -0.01500
C1247       C  0.70659658  0.66998842  0.99574671    -0.02700
C1248       C  0.72440339  0.67994160  0.53118180     0.07000
C1249       C  0.77555334  0.68939444  0.54046895    -0.02800
C1250       C  0.80691246  0.68881637  0.51475367    -0.02800
C1251       C  0.78757049  0.68039941  0.97833818     0.07100
C1252       C  0.73520063  0.67362810  0.96904131    -0.03000
Br1253     Br  0.69983463  0.67127532  0.91948841    -0.01500
Br1254     Br  0.64906051  0.64289449  0.98566954    -0.01600
Br1255     Br  0.87688867  0.69984872  0.53103118    -0.01600
Br1256     Br  0.80470469  0.69917079  0.58997901    -0.01500
C1257       C  0.53182019  0.89007935  0.58576987    -0.02700
C1258       C  0.56453686  0.89467251  0.61992287     0.07000
C1259       C  0.57355482  0.92447807  0.63205668    -0.02800
C1260       C  0.56116370  0.94806429  0.60776756    -0.02800
C1261       C  0.53755171  0.94247909  0.57186059     0.07100
C1262       C  0.52130402  0.91353916  0.56134473    -0.03000
Br1263     Br  0.98104934  0.90620057  0.51384392    -0.01500
Br1264     Br  0.99081509  0.85409106  0.57429865    -0.01600
Br1265     Br  0.57133902  0.98837074  0.62435105    -0.01600
Br1266     Br  0.59210726  0.93425624  0.68267856    -0.01500
C1267       C  0.78165514  0.86258569  0.74008058    -0.02700
C1268       C  0.78813127  0.84426437  0.77045568     0.07000
C1269       C  0.74843082  0.82488016  0.77498816    -0.02800
C1270       C  0.70044271  0.82651486  0.75245198    -0.02800
C1271       C  0.69331207  0.84465189  0.72086088     0.07100
C1272       C  0.73695624  0.86036009  0.71371920    -0.03000
Br1273     Br  0.74189748  0.87490827  0.66649158    -0.01500
Br1274     Br  0.83546092  0.88995687  0.73355876    -0.01600
Br1275     Br  0.64744196  0.80424757  0.76915247    -0.01600
Br1276     Br  0.75936702  0.79573152  0.81245298    -0.01500
C1277       C  0.53792472  0.84380052  0.75386075    -0.02700
C1278       C  0.51893728  0.83425664  0.71844505     0.07000
C1279       C  0.96738376  0.82575702  0.70894294    -0.02800
C1280       C  0.93626478  0.82597307  0.73486108    -0.02800
C1281       C  0.95686119  0.83392744  0.77132502     0.07100
C1282       C  0.50938401  0.83961196  0.78043590    -0.03000
Br1283     Br  0.54570359  0.83740571  0.82916484    -0.01500
Br1284     Br  0.59584338  0.87054282  0.76479644    -0.01600
Br1285     Br  0.86616659  0.81551703  0.71836050    -0.01600
Br1286     Br  0.93767425  0.81769953  0.65903812    -0.01500
C1287       C  0.64919024  0.78279926  0.61721316    -0.02700
C1288       C  0.60917697  0.78576842  0.63552876     0.07000
C1289       C  0.58127138  0.76018121  0.64189844    -0.02800
C1290       C  0.59251950  0.73235836  0.62983810    -0.02800
C1291       C  0.63370231  0.72905193  0.61284430     0.07100
C1292       C  0.66113289  0.75478323  0.60587976    -0.03000
Br1293     Br  0.71528740  0.75232842  0.58051567    -0.01500
Br1294     Br  0.68985914  0.81675353  0.60862468    -0.01600
Br1295     Br  0.54669624  0.69975443  0.63289523    -0.01600
Br1296     Br  0.52557837  0.76293278  0.66583551    -0.01500
loop_ 
_geom_bond_atom_site_label_1 
_geom_bond_atom_site_label_2 
_geom_bond_distance 
_geom_bond_site_symmetry_2 
_ccdc_geom_bond_type 
C1            C2   1.534       .  S
C1            C7   1.540       .  S
C1            C5   1.561       .  S
C1          C286   1.567       .  S
C2            H9   1.087       .  S
C2            C3   1.360       .  D
C3            C4   1.568       .  S
C3          C306   1.510       .  S
C4            C8   1.540       .  S
C4            C6   1.551       .  S
C4           H10   1.094       .  S
C5           H11   1.075       .  S
C5            C6   1.384       .  D
C6          C299   1.536       .  S
C7           H12   1.086       .  S
C7            C8   1.361       .  D
C8          C316   1.507       .  S
C13          C14   1.554       .  S
C13          C19   1.532       .  S
C13          C17   1.540       .  S
C13         C259   1.557       .  S
C14          H21   1.084       .  S
C14          C15   1.372       .  D
C15          C16   1.539       .  S
C15         C319   1.511       .  S
C16          C20   1.565       .  S
C16          C18   1.551       .  S
C16          H22   1.094       .  S
C17          H23   1.083       .  S
C17          C18   1.376       .  D
C18         C266   1.530       .  S
C19          H24   1.085       .  S
C19          C20   1.357       .  D
C20         C276   1.503       .  S
C25          C26   1.544       .  S
C25          C31   1.525       .  S
C25          C29   1.544       .  S
C25         C236   1.550       .  S
C26          H33   1.086       .  S
C26          C27   1.381       .  D
C27          C28   1.565       .  S
C27         C309   1.527       .  S
C28          C32   1.550       .  S
C28          C30   1.545       .  S
C28          H34   1.106       .  S
C29          H35   1.083       .  S
C29          C30   1.362       .  D
C30         C296   1.497       .  S
C31          H36   1.086       .  S
C31          C32   1.357       .  D
C32         C246   1.497       .  S
C37          C38   1.535       .  S
C37          C43   1.529       .  S
C37          C41   1.544       .  S
C37         C226   1.546       .  S
C38          H45   1.082       .  S
C38          C39   1.354       .  D
C39          C40   1.545       .  S
C39         C249   1.494       .  S
C40          C44   1.560       .  S
C40          C42   1.547       .  S
C40          H46   1.105       .  S
C41          H47   1.084       .  S
C41          C42   1.370       .  D
C42         C269   1.491       .  S
C43          H48   1.085       .  S
C43          C44   1.373       .  D
C44         C279   1.522       .  S
C49          C50   1.526       .  S
C49          C55   1.534       .  S
C49          C53   1.548       .  S
C49         C186   1.547       .  S
C50          H57   1.086       .  S
C50          C51   1.368       .  D
C51          C52   1.554       .  S
C51         C216   1.507       .  S
C52          C56   1.558       .  S
C52          C54   1.554       .  S
C52          H58   1.107       .  S
C53          H59   1.084       .  S
C53          C54   1.373       .  D
C54         C196   1.508       .  S
C55          H60   1.086       .  S
C55          C56   1.358       .  D
C56         C206   1.499       .  S
C61          C62   1.534       .  S
C61          C67   1.527       .  S
C61          C65   1.545       .  S
C61         C156   1.551       .  S
C62          H69   1.086       .  S
C62          C63   1.368       .  D
C63          C64   1.555       .  S
C63         C176   1.507       .  S
C64          C68   1.552       .  S
C64          C66   1.543       .  S
C64          H70   1.108       .  S
C65          H71   1.082       .  S
C65          C66   1.365       .  D
C66         C166   1.492       .  S
C67          H72   1.087       .  S
C67          C68   1.370       .  D
C68         C219   1.502       .  S
C73          C74   1.546       .  S
C73          C79   1.531       .  S
C73          C77   1.519       .  S
C73         C139   1.547       .  S
C74          H81   1.084       .  S
C74          C75   1.370       .  D
C75          C76   1.546       .  S
C75         C146   1.504       .  S
C76          C80   1.568       .  S
C76          C78   1.558       .  S
C76          H82   1.096       .  S
C77          H83   1.087       .  S
C77          C78   1.357       .  D
C78         C199   1.492       .  S
C79          H84   1.077       .  S
C79          C80   1.373       .  D
C80         C209   1.541       .  S
C85          C86   1.533       .  S
C85          C91   1.529       .  S
C85          C89   1.547       .  S
C85         C129   1.554       .  S
C86          H93   1.085       .  S
C86          C87   1.366       .  D
C87          C88   1.556       .  S
C87         C179   1.512       .  S
C88          C92   1.553       .  S
C88          C90   1.545       .  S
C88          H94   1.108       .  S
C89          H95   1.083       .  S
C89          C90   1.367       .  D
C90         C169   1.496       .  S
C91          H96   1.086       .  S
C91          C92   1.371       .  D
C92         C149   1.503       .  S
O97        Cu105   2.002       .  S
O97         C107   1.277       .  A
O98        Cu105   2.011       .  S
O98         C108   1.277       .  A
O99        Cu105   2.000       .  S
O99         C109   1.277       .  A
O100       Cu105   2.001       .  S
O100        C110   1.277       .  A
O101       Cu106   2.016       .  S
O101        C110   1.277       .  A
O102       Cu106   2.006       .  S
O102        C109   1.277       .  A
O103       Cu106   2.023       .  S
O103        C108   1.280       .  A
O104       Cu106   2.015       .  S
O104        C107   1.279       .  A
Cu105      Cu106   2.366       .  S
C107        C126   1.491       .  S
C108        C256   1.495       .  S
C109        C159   1.478       .  S
C110        C229   1.471       .  S
O111       Cu443   2.008       .  S
O111        C121   1.277       .  A
O112       Cu119   2.007   1_565  S
O112        C770   1.277       .  A
O113       Cu119   2.021       .  S
O113        C771   1.278       .  A
O114       Cu443   2.011   1_565  S
O114        C124   1.279       .  A
O115       Cu120   2.003   1_565  S
O115        C772   1.276   1_455  A
O116       Cu444   1.999   1_554  S
O116        C123   1.276       .  A
O117       Cu444   2.027   1_564  S
O117        C122   1.280       .  A
O118       Cu120   2.018   1_655  S
O118        C769   1.279       .  A
Cu119       O435   2.019   1_554  S
Cu119       O438   2.015   1_544  S
Cu119     Cu1092   2.363   1_554  S
Cu120       O440   1.997       .  S
Cu120       O441   2.037   1_545  S
Cu120     Cu1091   2.366   1_455  S
C121        O766   1.279       .  A
C121        C136   1.490       .  S
C122        O760   1.277   1_455  A
C122        C289   1.490       .  S
C123        O761   1.278   1_455  A
C123        C189   1.501       .  S
C124        O763   1.276       .  A
C124        C239   1.489       .  S
C125        C126   1.416       .  A
C125        C130   1.412       .  A
C125       Br132   1.940       .  S
C126        C127   1.411       .  A
C127        C128   1.408       .  A
C127       Br134   1.934       .  S
C128        C129   1.420       .  A
C128       Br133   1.926       .  S
C129        C130   1.425       .  A
C130       Br131   1.934       .  S
C135        C136   1.415       .  A
C135        C140   1.410       .  A
C135       Br142   1.927       .  S
C136        C137   1.412       .  A
C137        C138   1.409       .  A
C137       Br792   1.934       .  S
C138        C139   1.422       .  A
C138       Br143   1.939       .  S
C139        C140   1.418       .  A
C140       Br141   1.934       .  S
Br144       C785   1.934       .  S
C145        C146   1.413       .  A
C145        C150   1.406       .  A
C145       Br152   1.917       .  S
C146        C147   1.416       .  A
C147        C148   1.416       .  A
C147       Br154   1.934       .  S
C148        C149   1.414       .  A
C148       Br153   1.921       .  S
C149        C150   1.409       .  A
C150       Br151   1.929       .  S
C155        C156   1.428       .  A
C155        C160   1.412       .  A
C155       Br162   1.934       .  S
C156        C157   1.424       .  A
C157        C158   1.403       .  A
C157       Br164   1.926       .  S
C158        C159   1.404       .  A
C158       Br163   1.935       .  S
C159        C160   1.409       .  A
C160       Br161   1.937       .  S
C165        C490   1.409       .  A
C165        C818   1.411       .  A
C165       Br172   1.927       .  S
C166        C167   1.415       .  A
C166        C489   1.408   1_554  A
C167        C816   1.406   1_455  A
C167       Br174   1.932       .  S
C168        C815   1.406       .  A
C168        C493   1.409   1_554  A
C168       Br173   1.924       .  S
C169        C170   1.417       .  A
C169        C492   1.410       .  A
C170        C813   1.411       .  A
C170       Br171   1.930       .  S
C175        C180   1.423       .  A
C175        C500   1.416       .  A
C175       Br182   1.928       .  S
C176        C177   1.415       .  A
C176        C499   1.416       .  A
C177        C178   1.401   1_554  A
C177       Br184   1.939       .  S
C178        C503   1.418       .  A
C178       Br183   1.940       .  S
C179        C180   1.419       .  A
C179        C502   1.419       .  A
C180       Br181   1.927       .  S
C185        C186   1.413       .  A
C185        C190   1.405       .  A
C185       Br192   1.924       .  S
C186        C187   1.421       .  A
C187        C188   1.412   1_455  A
C187       Br842   1.941   1_455  S
C188        C189   1.420   1_655  A
C188       Br841   1.933       .  S
C189        C190   1.418       .  A
C190       Br191   1.935       .  S
Br193       C836   1.933       .  S
Br194       C835   1.941       .  S
C195        C196   1.412       .  A
C195        C200   1.408       .  A
C195       Br202   1.920       .  S
C196        C197   1.421       .  A
C197        C198   1.412       .  A
C197       Br204   1.924       .  S
C198        C199   1.404       .  A
C198       Br203   1.931       .  S
C199        C200   1.414       .  A
C200       Br201   1.934       .  S
C205        C210   1.426       .  A
C205        C854   1.411       .  A
C205       Br212   1.927       .  S
C206        C207   1.407       .  A
C206        C853   1.411   1_455  A
C207        C208   1.399       .  A
C207       Br214   1.934       .  S
C208        C857   1.422   1_455  A
C208       Br213   1.938       .  S
C209        C210   1.428       .  A
C209        C856   1.422       .  A
C210       Br211   1.926       .  S
C215        C216   1.417       .  A
C215        C220   1.408       .  A
C215       Br222   1.922       .  S
C216        C217   1.417       .  A
C217        C218   1.411       .  A
C217       Br224   1.935       .  S
C218        C219   1.412       .  A
C218       Br223   1.922       .  S
C219        C220   1.410       .  A
C220       Br221   1.932       .  S
C225        C226   1.424       .  A
C225        C230   1.414       .  A
C225       Br232   1.929       .  S
C226        C227   1.425       .  A
C227        C228   1.398       .  A
C227       Br234   1.939       .  S
C228        C229   1.398       .  A
C228       Br233   1.926       .  S
C229        C230   1.406       .  A
C230       Br231   1.930       .  S
C235        C236   1.423       .  A
C235        C240   1.411       .  A
C235       Br890   1.927       .  S
C236        C237   1.424       .  A
C237        C238   1.406       .  A
C237       Br244   1.937       .  S
C238        C239   1.410       .  A
C238       Br243   1.935       .  S
C239        C240   1.414       .  A
C240       Br889   1.940       .  S
Br241       C888   1.940   1_455  S
Br242       C883   1.927   1_455  S
C245        C246   1.423       .  A
C245        C250   1.407       .  A
C245       Br252   1.940       .  S
C246        C247   1.411       .  A
C247        C248   1.409       .  A
C247       Br254   1.934       .  S
C248        C249   1.423       .  A
C248       Br253   1.942       .  S
C249        C250   1.407       .  A
C250       Br251   1.934       .  S
C255        C256   1.415       .  A
C255        C260   1.414       .  A
C255       Br262   1.939       .  S
C256        C257   1.412       .  A
C257        C258   1.413       .  A
C257       Br264   1.935       .  S
C258        C259   1.425       .  A
C258       Br263   1.939       .  S
C259        C260   1.423       .  A
C260       Br261   1.924       .  S
C265        C266   1.433       .  A
C265        C918   1.409   1_455  A
C265       Br272   1.935       .  S
C266        C591   1.435   1_554  A
C267        C590   1.433       .  A
C267        C916   1.412   1_455  A
C267       Br274   1.937       .  S
C268        C269   1.403       .  A
C268        C915   1.412       .  A
C268       Br273   1.921       .  S
C269        C594   1.402       .  A
C270        C913   1.409       .  A
C270        C593   1.403   1_554  A
C270       Br271   1.937       .  S
C275        C280   1.403       .  A
C275        C600   1.408       .  A
C275       Br282   1.931       .  S
C276        C277   1.416       .  A
C276        C599   1.408   1_554  A
C277        C278   1.422       .  A
C277       Br284   1.934       .  S
C278        C603   1.425   1_554  A
C278       Br283   1.927       .  S
C279        C280   1.420       .  A
C279        C602   1.426       .  A
C280       Br281   1.934       .  S
C285        C286   1.435       .  A
C285        C290   1.413       .  A
C285       Br940   1.937   1_455  S
C286        C287   1.430       .  A
C287        C288   1.413       .  A
C287       Br294   1.920       .  S
C288        C289   1.404       .  A
C288       Br293   1.931       .  S
C289        C290   1.406       .  A
C290       Br939   1.939   1_455  S
Br291       C938   1.939       .  S
Br292       C933   1.937       .  S
C295        C296   1.401       .  A
C295        C300   1.407       .  A
C295       Br302   1.937       .  S
C296        C297   1.408       .  A
C297        C298   1.419       .  A
C297       Br304   1.921       .  S
C298        C299   1.434       .  A
C298       Br303   1.936       .  S
C299        C300   1.428       .  A
C300       Br301   1.921       .  S
C305        C306   1.406       .  A
C305        C310   1.404       .  A
C305       Br312   1.928       .  S
C306        C955   1.418   1_455  A
C307        C308   1.424       .  A
C307        C954   1.418       .  A
C307       Br314   1.927       .  S
C308        C309   1.423       .  A
C308       Br313   1.926       .  S
C309        C958   1.416       .  A
C310        C957   1.416   1_455  A
C310       Br311   1.918       .  S
C315        C316   1.418       .  A
C315        C320   1.415       .  A
C315       Br322   1.929       .  S
C316        C317   1.410       .  A
C317        C318   1.412       .  A
C317       Br324   1.926       .  S
C318        C319   1.415       .  A
C318       Br323   1.918       .  S
C319        C320   1.414       .  A
C320       Br321   1.925       .  S
C325        C326   1.517       .  S
C325        C331   1.547       .  S
C325        C329   1.551       .  S
C325        C610   1.548       .  S
C326        H333   1.087       .  S
C326        C327   1.352       .  D
C327        C328   1.567       .  S
C327        C630   1.500       .  S
C328        C332   1.539       .  S
C328        C330   1.554       .  S
C328        H334   1.093       .  S
C329        H335   1.078       .  S
C329        C330   1.383       .  D
C330        C623   1.532       .  S
C331        H336   1.085       .  S
C331        C332   1.364       .  D
C332        C640   1.507       .  S
C337        C338   1.554       .  S
C337        C343   1.531       .  S
C337        C341   1.539       .  S
C337        C583   1.555       .  S
C338        H345   1.084       .  S
C338        C339   1.372       .  D
C339        C340   1.540       .  S
C339        C643   1.512       .  S
C340        C344   1.566       .  S
C340        C342   1.552       .  S
C340        H346   1.095       .  S
C341        H347   1.083       .  S
C341        C342   1.375       .  D
C342        C590   1.528       .  S
C343        H348   1.085       .  S
C343        C344   1.357       .  D
C344        C600   1.503       .  S
C349        C350   1.547       .  S
C349        C355   1.524       .  S
C349        C353   1.544       .  S
C349        C560   1.555       .  S
C350        H357   1.085       .  S
C350        C351   1.383       .  D
C351        C352   1.560       .  S
C351        C633   1.526       .  S
C352        C356   1.548       .  S
C352        C354   1.543       .  S
C352        H358   1.105       .  S
C353        H359   1.082       .  S
C353        C354   1.363       .  D
C354        C620   1.495       .  S
C355        H360   1.086       .  S
C355        C356   1.355       .  D
C356        C570   1.495       .  S
C361        C362   1.534       .  S
C361        C367   1.530       .  S
C361        C365   1.544       .  S
C361        C550   1.548       .  S
C362        H369   1.083       .  S
C362        C363   1.354       .  D
C363        C364   1.545       .  S
C363        C573   1.493       .  S
C364        C368   1.559       .  S
C364        C366   1.548       .  S
C364        H370   1.105       .  S
C365        H371   1.084       .  S
C365        C366   1.371       .  D
C366        C593   1.492       .  S
C367        H372   1.085       .  S
C367        C368   1.374       .  D
C368        C603   1.522       .  S
C373        C374   1.529       .  S
C373        C379   1.535       .  S
C373        C377   1.546       .  S
C373        C510   1.549       .  S
C374        H381   1.086       .  S
C374        C375   1.369       .  D
C375        C376   1.554       .  S
C375        C540   1.509       .  S
C376        C380   1.558       .  S
C376        C378   1.553       .  S
C376        H382   1.107       .  S
C377        H383   1.083       .  S
C377        C378   1.371       .  D
C378        C520   1.505       .  S
C379        H384   1.086       .  S
C379        C380   1.359       .  D
C380        C530   1.501       .  S
C385        C386   1.534       .  S
C385        C391   1.528       .  S
C385        C389   1.546       .  S
C385        C480   1.553       .  S
C386        H393   1.086       .  S
C386        C387   1.368       .  D
C387        C388   1.555       .  S
C387        C500   1.507       .  S
C388        C392   1.552       .  S
C388        C390   1.544       .  S
C388        H394   1.108       .  S
C389        H395   1.082       .  S
C389        C390   1.366       .  D
C390        C490   1.494       .  S
C391        H396   1.087       .  S
C391        C392   1.370       .  D
C392        C543   1.504       .  S
C397        C398   1.545       .  S
C397        C403   1.535       .  S
C397        C401   1.519       .  S
C397        C463   1.550       .  S
C398        H405   1.084       .  S
C398        C399   1.370       .  D
C399        C400   1.545       .  S
C399        C470   1.503       .  S
C400        C404   1.568       .  S
C400        C402   1.556       .  S
C400        H406   1.095       .  S
C401        H407   1.087       .  S
C401        C402   1.357       .  D
C402        C523   1.491       .  S
C403        H408   1.069       .  S
C403        C404   1.377       .  D
C404        C533   1.543       .  S
C409        C410   1.533       .  S
C409        C415   1.528       .  S
C409        C413   1.546       .  S
C409        C453   1.552       .  S
C410        H417   1.085       .  S
C410        C411   1.366       .  D
C411        C412   1.556       .  S
C411        C503   1.511       .  S
C412        C416   1.552       .  S
C412        C414   1.545       .  S
C412        H418   1.108       .  S
C413        H419   1.083       .  S
C413        C414   1.367       .  D
C414        C493   1.495       .  S
C415        H420   1.086       .  S
C415        C416   1.371       .  D
C416        C473   1.502       .  S
O421       Cu429   1.999       .  S
O421        C431   1.276       .  A
O422       Cu429   2.005       .  S
O422        C432   1.276       .  A
O423       Cu429   2.003       .  S
O423        C433   1.277       .  A
O424       Cu429   2.004       .  S
O424        C434   1.277       .  A
O425       Cu430   2.018       .  S
O425        C434   1.277       .  A
O426       Cu430   2.008       .  S
O426        C433   1.277       .  A
O427       Cu430   2.019       .  S
O427        C432   1.279       .  A
O428       Cu430   2.013       .  S
O428        C431   1.278       .  A
Cu429      Cu430   2.365       .  S
C431        C450   1.490       .  S
C432        C580   1.492       .  S
C433        C483   1.480       .  S
C434        C553   1.473       .  S
O435        C445   1.278       .  A
O436       Cu443   1.996   1_565  S
O436       C1094   1.275       .  A
O437       Cu443   2.024       .  S
O437       C1095   1.279       .  A
O438        C448   1.279       .  A
O439       Cu444   2.003   1_665  S
O439       C1096   1.276       .  A
O440        C447   1.276       .  A
O441        C446   1.281       .  A
O442       Cu444   2.009   1_655  S
O442       C1093   1.278       .  A
Cu443      Cu768   2.366       .  S
Cu444      Cu767   2.363   1_456  S
C445       O1090   1.278       .  A
C445        C460   1.491       .  S
C446       O1084   1.275   1_455  A
C446        C613   1.478       .  S
C447       O1085   1.279   1_455  A
C447        C513   1.498       .  S
C448       O1087   1.276       .  A
C448        C563   1.487       .  S
C449        C450   1.416       .  A
C449        C454   1.411       .  A
C449       Br456   1.941       .  S
C450        C451   1.411       .  A
C451        C452   1.407       .  A
C451       Br458   1.934       .  S
C452        C453   1.419       .  A
C452       Br457   1.926       .  S
C453        C454   1.425       .  A
C454       Br455   1.934       .  S
C459        C460   1.414       .  A
C459        C464   1.412       .  A
C459       Br466   1.929       .  S
C460        C461   1.412       .  A
C461        C462   1.410       .  A
C461      Br1116   1.935       .  S
C462        C463   1.423       .  A
C462       Br467   1.939       .  S
C463        C464   1.421       .  A
C464       Br465   1.934       .  S
Br468      C1109   1.935       .  S
C469        C470   1.413       .  A
C469        C474   1.405       .  A
C469       Br476   1.917       .  S
C470        C471   1.415       .  A
C471        C472   1.415       .  A
C471       Br478   1.934       .  S
C472        C473   1.414       .  A
C472       Br477   1.920       .  S
C473        C474   1.409       .  A
C474       Br475   1.929       .  S
C479        C480   1.429       .  A
C479        C484   1.413       .  A
C479       Br486   1.934       .  S
C480        C481   1.425       .  A
C481        C482   1.404       .  A
C481       Br488   1.926       .  S
C482        C483   1.404       .  A
C482       Br487   1.935       .  S
C483        C484   1.409       .  A
C484       Br485   1.937       .  S
C489       C1142   1.410       .  A
C489       Br496   1.927       .  S
C490        C491   1.415       .  A
C491       C1140   1.407   1_455  A
C491       Br498   1.932       .  S
C492       C1139   1.407       .  A
C492       Br497   1.924       .  S
C493        C494   1.418       .  A
C494       C1137   1.410       .  A
C494       Br495   1.930       .  S
C499        C504   1.423   1_554  A
C499       Br506   1.928       .  S
C500        C501   1.415       .  A
C501        C502   1.401       .  A
C501       Br508   1.939       .  S
C502       Br507   1.941       .  S
C503        C504   1.419       .  A
C504       Br505   1.927       .  S
C509        C510   1.417       .  A
C509        C514   1.405       .  A
C509       Br516   1.925       .  S
C510        C511   1.422       .  A
C511        C512   1.412   1_455  A
C511      Br1166   1.940   1_455  S
C512        C513   1.417   1_655  A
C512      Br1165   1.931       .  S
C513        C514   1.415       .  A
C514       Br515   1.938       .  S
Br517      C1160   1.931       .  S
Br518      C1159   1.940       .  S
C519        C520   1.411       .  A
C519        C524   1.407       .  A
C519       Br526   1.920       .  S
C520        C521   1.420       .  A
C521        C522   1.411       .  A
C521       Br528   1.927       .  S
C522        C523   1.405       .  A
C522       Br527   1.930       .  S
C523        C524   1.415       .  A
C524       Br525   1.934       .  S
C529       C1178   1.410       .  A
C529        C534   1.426       .  A
C529       Br536   1.928       .  S
C530       C1177   1.410   1_455  A
C530        C531   1.408       .  A
C531        C532   1.401       .  A
C531       Br538   1.934       .  S
C532       C1181   1.422   1_455  A
C532       Br537   1.938       .  S
C533       C1180   1.422       .  A
C533        C534   1.429       .  A
C534       Br535   1.926       .  S
C539        C540   1.418       .  A
C539        C544   1.408       .  A
C539       Br546   1.921       .  S
C540        C541   1.417       .  A
C541        C542   1.413       .  A
C541       Br548   1.933       .  S
C542        C543   1.413       .  A
C542       Br547   1.922       .  S
C543        C544   1.409       .  A
C544       Br545   1.932       .  S
C549        C550   1.425       .  A
C549        C554   1.414       .  A
C549       Br556   1.928       .  S
C550        C551   1.426       .  A
C551        C552   1.400       .  A
C551       Br558   1.940       .  S
C552        C553   1.399       .  A
C552       Br557   1.927       .  S
C553        C554   1.405       .  A
C554       Br555   1.930       .  S
C559        C560   1.427       .  A
C559        C564   1.411       .  A
C559      Br1214   1.927       .  S
C560        C561   1.428       .  A
C561        C562   1.409       .  A
C561       Br568   1.937       .  S
C562        C563   1.409       .  A
C562       Br567   1.935       .  S
C563        C564   1.410       .  A
C564      Br1213   1.940       .  S
Br565      C1212   1.940   1_455  S
Br566      C1207   1.927   1_455  S
C569        C570   1.422       .  A
C569        C574   1.408       .  A
C569       Br576   1.941       .  S
C570        C571   1.411       .  A
C571        C572   1.408       .  A
C571       Br578   1.933       .  S
C572        C573   1.422       .  A
C572       Br577   1.942       .  S
C573        C574   1.408       .  A
C574       Br575   1.933       .  S
C579        C580   1.414       .  A
C579        C584   1.412       .  A
C579       Br586   1.940       .  S
C580        C581   1.412       .  A
C581        C582   1.412       .  A
C581       Br588   1.935       .  S
C582        C583   1.425       .  A
C582       Br587   1.939       .  S
C583        C584   1.422       .  A
C584       Br585   1.923       .  S
C589        C590   1.434       .  A
C589       C1242   1.409   1_455  A
C589       Br596   1.935       .  S
C591       C1240   1.413   1_455  A
C591       Br598   1.936       .  S
C592       C1239   1.413       .  A
C592        C593   1.403       .  A
C592       Br597   1.922       .  S
C594       C1237   1.409       .  A
C594       Br595   1.937       .  S
C599        C604   1.403       .  A
C599       Br606   1.930       .  S
C600        C601   1.415       .  A
C601        C602   1.422       .  A
C601       Br608   1.934       .  S
C602       Br607   1.927       .  S
C603        C604   1.419       .  A
C604       Br605   1.934       .  S
C609        C610   1.428       .  A
C609        C614   1.407       .  A
C609      Br1264   1.941   1_455  S
C610        C611   1.429       .  A
C611        C612   1.414       .  A
C611       Br618   1.936       .  S
C612        C613   1.405       .  A
C612       Br617   1.931       .  S
C613        C614   1.404       .  A
C614      Br1263   1.932   1_455  S
Br615      C1262   1.932       .  S
Br616      C1257   1.941       .  S
C619        C620   1.404       .  A
C619        C624   1.411       .  A
C619       Br626   1.937       .  S
C620        C621   1.404       .  A
C621        C622   1.413       .  A
C621       Br628   1.923       .  S
C622        C623   1.435       .  A
C622       Br627   1.938       .  S
C623        C624   1.434       .  A
C624       Br625   1.936       .  S
C629        C630   1.404       .  A
C629        C634   1.401       .  A
C629       Br636   1.930       .  S
C630       C1279   1.416   1_455  A
C631       C1278   1.416       .  A
C631        C632   1.423       .  A
C631       Br638   1.935       .  S
C632        C633   1.428       .  A
C632       Br637   1.925       .  S
C633       C1282   1.416       .  A
C634       C1281   1.416   1_455  A
C634       Br635   1.917       .  S
C639        C640   1.417       .  A
C639        C644   1.416       .  A
C639       Br646   1.928       .  S
C640        C641   1.410       .  A
C641        C642   1.412       .  A
C641       Br648   1.927       .  S
C642        C643   1.415       .  A
C642       Br647   1.917       .  S
C643        C644   1.415       .  A
C644       Br645   1.924       .  S
C649        C650   1.534       .  S
C649        C655   1.540       .  S
C649        C653   1.561       .  S
C649        C934   1.567       .  S
C650        H657   1.087       .  S
C650        C651   1.360       .  D
C651        C652   1.569       .  S
C651        C954   1.510       .  S
C652        C656   1.540       .  S
C652        C654   1.551       .  S
C652        H658   1.094       .  S
C653        H659   1.074       .  S
C653        C654   1.383       .  D
C654        C947   1.536       .  S
C655        H660   1.086       .  S
C655        C656   1.362       .  D
C656        C964   1.507       .  S
C661        C662   1.554       .  S
C661        C667   1.532       .  S
C661        C665   1.540       .  S
C661        C907   1.558       .  S
C662        H669   1.084       .  S
C662        C663   1.372       .  D
C663        C664   1.539       .  S
C663        C967   1.511       .  S
C664        C668   1.565       .  S
C664        C666   1.551       .  S
C664        H670   1.094       .  S
C665        H671   1.083       .  S
C665        C666   1.376       .  D
C666        C914   1.530       .  S
C667        H672   1.085       .  S
C667        C668   1.357       .  D
C668        C924   1.503       .  S
C673        C674   1.544       .  S
C673        C679   1.525       .  S
C673        C677   1.544       .  S
C673        C884   1.550       .  S
C674        H681   1.086       .  S
C674        C675   1.381       .  D
C675        C676   1.565       .  S
C675        C957   1.527       .  S
C676        C680   1.550       .  S
C676        C678   1.545       .  S
C676        H682   1.106       .  S
C677        H683   1.083       .  S
C677        C678   1.362       .  D
C678        C944   1.497       .  S
C679        H684   1.086       .  S
C679        C680   1.357       .  D
C680        C894   1.497       .  S
C685        C686   1.535       .  S
C685        C691   1.529       .  S
C685        C689   1.544       .  S
C685        C874   1.546       .  S
C686        H693   1.082       .  S
C686        C687   1.354       .  D
C687        C688   1.545       .  S
C687        C897   1.494       .  S
C688        C692   1.560       .  S
C688        C690   1.547       .  S
C688        H694   1.105       .  S
C689        H695   1.084       .  S
C689        C690   1.370       .  D
C690        C917   1.491       .  S
C691        H696   1.085       .  S
C691        C692   1.373       .  D
C692        C927   1.522       .  S
C697        C698   1.526       .  S
C697        C703   1.534       .  S
C697        C701   1.548       .  S
C697        C834   1.547       .  S
C698        H705   1.086       .  S
C698        C699   1.368       .  D
C699        C700   1.554       .  S
C699        C864   1.507       .  S
C700        C704   1.558       .  S
C700        C702   1.554       .  S
C700        H706   1.107       .  S
C701        H707   1.085       .  S
C701        C702   1.373       .  D
C702        C844   1.508       .  S
C703        H708   1.086       .  S
C703        C704   1.358       .  D
C704        C854   1.499       .  S
C709        C710   1.534       .  S
C709        C715   1.527       .  S
C709        C713   1.545       .  S
C709        C804   1.551       .  S
C710        H717   1.086       .  S
C710        C711   1.368       .  D
C711        C712   1.555       .  S
C711        C824   1.507       .  S
C712        C716   1.552       .  S
C712        C714   1.543       .  S
C712        H718   1.108       .  S
C713        H719   1.082       .  S
C713        C714   1.365       .  D
C714        C814   1.492       .  S
C715        H720   1.087       .  S
C715        C716   1.370       .  D
C716        C867   1.502       .  S
C721        C722   1.546       .  S
C721        C727   1.531       .  S
C721        C725   1.519       .  S
C721        C787   1.547       .  S
C722        H729   1.084       .  S
C722        C723   1.370       .  D
C723        C724   1.546       .  S
C723        C794   1.504       .  S
C724        C728   1.568       .  S
C724        C726   1.558       .  S
C724        H730   1.096       .  S
C725        H731   1.087       .  S
C725        C726   1.357       .  D
C726        C847   1.492       .  S
C727        H732   1.076       .  S
C727        C728   1.373       .  D
C728        C857   1.541       .  S
C733        C734   1.533       .  S
C733        C739   1.529       .  S
C733        C737   1.547       .  S
C733        C777   1.554       .  S
C734        H741   1.085       .  S
C734        C735   1.366       .  D
C735        C736   1.556       .  S
C735        C827   1.512       .  S
C736        C740   1.553       .  S
C736        C738   1.545       .  S
C736        H742   1.108       .  S
C737        H743   1.083       .  S
C737        C738   1.367       .  D
C738        C817   1.496       .  S
C739        H744   1.086       .  S
C739        C740   1.371       .  D
C740        C797   1.503       .  S
O745       Cu753   2.002       .  S
O745        C755   1.277       .  A
O746       Cu753   2.011       .  S
O746        C756   1.277       .  A
O747       Cu753   2.000       .  S
O747        C757   1.277       .  A
O748       Cu753   2.001       .  S
O748        C758   1.277       .  A
O749       Cu754   2.016       .  S
O749        C758   1.277       .  A
O750       Cu754   2.006       .  S
O750        C757   1.277       .  A
O751       Cu754   2.023       .  S
O751        C756   1.280       .  A
O752       Cu754   2.016       .  S
O752        C755   1.279       .  A
Cu753      Cu754   2.366       .  S
C755        C774   1.491       .  S
C756        C904   1.495       .  S
C757        C807   1.478       .  S
C758        C877   1.471       .  S
O759      Cu1091   2.008       .  S
O759        C769   1.277       .  A
O760       Cu767   2.007   1_565  S
O761       Cu767   2.021       .  S
O762      Cu1091   2.011   1_565  S
O762        C772   1.279       .  A
O763       Cu768   2.003   1_565  S
O764      Cu1092   1.999   1_554  S
O764        C771   1.276       .  A
O765      Cu1092   2.028   1_564  S
O765        C770   1.280       .  A
O766       Cu768   2.018       .  S
Cu767      O1083   2.019   1_554  S
Cu767      O1086   2.015   1_544  S
Cu768      O1088   1.998       .  S
Cu768      O1089   2.037   1_545  S
C769        C784   1.490       .  S
C770        C937   1.490       .  S
C771        C837   1.501       .  S
C772        C887   1.489       .  S
C773        C774   1.416       .  A
C773        C778   1.412       .  A
C773       Br780   1.940       .  S
C774        C775   1.411       .  A
C775        C776   1.408       .  A
C775       Br782   1.934       .  S
C776        C777   1.420       .  A
C776       Br781   1.926       .  S
C777        C778   1.425       .  A
C778       Br779   1.934       .  S
C783        C784   1.415       .  A
C783        C788   1.410       .  A
C783       Br790   1.927       .  S
C784        C785   1.412       .  A
C785        C786   1.409       .  A
C786        C787   1.422       .  A
C786       Br791   1.939       .  S
C787        C788   1.418       .  A
C788       Br789   1.934       .  S
C793        C794   1.413       .  A
C793        C798   1.406       .  A
C793       Br800   1.917       .  S
C794        C795   1.416       .  A
C795        C796   1.416       .  A
C795       Br802   1.934       .  S
C796        C797   1.414       .  A
C796       Br801   1.921       .  S
C797        C798   1.409       .  A
C798       Br799   1.929       .  S
C803        C804   1.428       .  A
C803        C808   1.412       .  A
C803       Br810   1.934       .  S
C804        C805   1.424       .  A
C805        C806   1.403       .  A
C805       Br812   1.926       .  S
C806        C807   1.404       .  A
C806       Br811   1.935       .  S
C807        C808   1.409       .  A
C808       Br809   1.937       .  S
C813       C1138   1.409       .  A
C813       Br820   1.927       .  S
C814       C1137   1.408   1_554  A
C814        C815   1.415       .  A
C815       Br822   1.932       .  S
C816       C1141   1.409   1_554  A
C816       Br821   1.924       .  S
C817       C1140   1.410       .  A
C817        C818   1.417   1_655  A
C818       Br819   1.930       .  S
C823       C1148   1.416       .  A
C823        C828   1.423       .  A
C823       Br830   1.928       .  S
C824       C1147   1.416       .  A
C824        C825   1.415       .  A
C825        C826   1.401   1_554  A
C825       Br832   1.939       .  S
C826       C1151   1.418       .  A
C826       Br831   1.940       .  S
C827       C1150   1.419       .  A
C827        C828   1.419       .  A
C828       Br829   1.927       .  S
C833        C834   1.413       .  A
C833        C838   1.405       .  A
C833       Br840   1.924       .  S
C834        C835   1.421       .  A
C835        C836   1.412       .  A
C836        C837   1.420       .  A
C837        C838   1.418       .  A
C838       Br839   1.935       .  S
C843        C844   1.412       .  A
C843        C848   1.408       .  A
C843       Br850   1.920       .  S
C844        C845   1.421       .  A
C845        C846   1.412       .  A
C845       Br852   1.924       .  S
C846        C847   1.404       .  A
C846       Br851   1.931       .  S
C847        C848   1.414       .  A
C848       Br849   1.934       .  S
C853        C858   1.426       .  A
C853       Br860   1.927       .  S
C854        C855   1.407       .  A
C855        C856   1.399       .  A
C855       Br862   1.934       .  S
C856       Br861   1.938       .  S
C857        C858   1.428       .  A
C858       Br859   1.926       .  S
C863        C864   1.417       .  A
C863        C868   1.408       .  A
C863       Br870   1.922       .  S
C864        C865   1.417       .  A
C865        C866   1.411       .  A
C865       Br872   1.935       .  S
C866        C867   1.412       .  A
C866       Br871   1.922       .  S
C867        C868   1.410       .  A
C868       Br869   1.932       .  S
C873        C874   1.424       .  A
C873        C878   1.414       .  A
C873       Br880   1.929       .  S
C874        C875   1.425       .  A
C875        C876   1.398       .  A
C875       Br882   1.939       .  S
C876        C877   1.398       .  A
C876       Br881   1.926       .  S
C877        C878   1.406       .  A
C878       Br879   1.930       .  S
C883        C884   1.423       .  A
C883        C888   1.411       .  A
C884        C885   1.424       .  A
C885        C886   1.406       .  A
C885       Br892   1.937       .  S
C886        C887   1.410       .  A
C886       Br891   1.935       .  S
C887        C888   1.414       .  A
C893        C894   1.423       .  A
C893        C898   1.407       .  A
C893       Br900   1.940       .  S
C894        C895   1.411       .  A
C895        C896   1.409       .  A
C895       Br902   1.934       .  S
C896        C897   1.423       .  A
C896       Br901   1.942       .  S
C897        C898   1.407       .  A
C898       Br899   1.934       .  S
C903        C904   1.415       .  A
C903        C908   1.414       .  A
C903       Br910   1.939       .  S
C904        C905   1.412       .  A
C905        C906   1.413       .  A
C905       Br912   1.935       .  S
C906        C907   1.425       .  A
C906       Br911   1.939       .  S
C907        C908   1.423       .  A
C908       Br909   1.924       .  S
C913        C914   1.433       .  A
C913       Br920   1.935       .  S
C914       C1239   1.435   1_554  A
C915       C1238   1.433       .  A
C915       Br922   1.937       .  S
C916        C917   1.403       .  A
C916       Br921   1.921       .  S
C917       C1242   1.402       .  A
C918       C1241   1.403   1_554  A
C918       Br919   1.936       .  S
C923       C1248   1.408       .  A
C923        C928   1.403       .  A
C923       Br930   1.931       .  S
C924       C1247   1.408   1_554  A
C924        C925   1.416       .  A
C925        C926   1.422       .  A
C925       Br932   1.934       .  S
C926       C1251   1.425   1_554  A
C926       Br931   1.927       .  S
C927       C1250   1.426       .  A
C927        C928   1.420       .  A
C928       Br929   1.934       .  S
C933        C934   1.435       .  A
C933        C938   1.413       .  A
C934        C935   1.431       .  A
C935        C936   1.413       .  A
C935       Br942   1.920       .  S
C936        C937   1.404       .  A
C936       Br941   1.931       .  S
C937        C938   1.406       .  A
C943        C944   1.401       .  A
C943        C948   1.407       .  A
C943       Br950   1.937       .  S
C944        C945   1.408       .  A
C945        C946   1.419       .  A
C945       Br952   1.921       .  S
C946        C947   1.434       .  A
C946       Br951   1.936       .  S
C947        C948   1.428       .  A
C948       Br949   1.922       .  S
C953        C954   1.406       .  A
C953        C958   1.404       .  A
C953       Br960   1.928       .  S
C955        C956   1.424       .  A
C955       Br962   1.927       .  S
C956        C957   1.423       .  A
C956       Br961   1.926       .  S
C958       Br959   1.918       .  S
C963        C964   1.418       .  A
C963        C968   1.415       .  A
C963       Br970   1.929       .  S
C964        C965   1.410       .  A
C965        C966   1.412       .  A
C965       Br972   1.926       .  S
C966        C967   1.415       .  A
C966       Br971   1.918       .  S
C967        C968   1.414       .  A
C968       Br969   1.925       .  S
C973        C974   1.517       .  S
C973        C979   1.547       .  S
C973        C977   1.551       .  S
C973       C1258   1.548       .  S
C974        H981   1.087       .  S
C974        C975   1.352       .  D
C975        C976   1.567       .  S
C975       C1278   1.500       .  S
C976        C980   1.539       .  S
C976        C978   1.554       .  S
C976        H982   1.093       .  S
C977        H983   1.078       .  S
C977        C978   1.383       .  D
C978       C1271   1.532       .  S
C979        H984   1.085       .  S
C979        C980   1.364       .  D
C980       C1288   1.507       .  S
C985        C986   1.554       .  S
C985        C991   1.531       .  S
C985        C989   1.539       .  S
C985       C1231   1.555       .  S
C986        H993   1.084       .  S
C986        C987   1.372       .  D
C987        C988   1.540       .  S
C987       C1291   1.512       .  S
C988        C992   1.566       .  S
C988        C990   1.552       .  S
C988        H994   1.095       .  S
C989        H995   1.083       .  S
C989        C990   1.375       .  D
C990       C1238   1.528       .  S
C991        H996   1.085       .  S
C991        C992   1.357       .  D
C992       C1248   1.503       .  S
C997        C998   1.547       .  S
C997       C1003   1.524       .  S
C997       C1001   1.544       .  S
C997       C1208   1.555       .  S
C998       H1005   1.085       .  S
C998        C999   1.383       .  D
C999       C1000   1.560       .  S
C999       C1281   1.526       .  S
C1000      C1004   1.548       .  S
C1000      C1002   1.543       .  S
C1000      H1006   1.105       .  S
C1001      H1007   1.082       .  S
C1001      C1002   1.363       .  D
C1002      C1268   1.495       .  S
C1003      H1008   1.086       .  S
C1003      C1004   1.355       .  D
C1004      C1218   1.495       .  S
C1009      C1010   1.534       .  S
C1009      C1015   1.530       .  S
C1009      C1013   1.544       .  S
C1009      C1198   1.548       .  S
C1010      H1017   1.083       .  S
C1010      C1011   1.354       .  D
C1011      C1012   1.545       .  S
C1011      C1221   1.493       .  S
C1012      C1016   1.559       .  S
C1012      C1014   1.548       .  S
C1012      H1018   1.105       .  S
C1013      H1019   1.084       .  S
C1013      C1014   1.371       .  D
C1014      C1241   1.492       .  S
C1015      H1020   1.085       .  S
C1015      C1016   1.374       .  D
C1016      C1251   1.522       .  S
C1021      C1022   1.529       .  S
C1021      C1027   1.535       .  S
C1021      C1025   1.546       .  S
C1021      C1158   1.549       .  S
C1022      H1029   1.086       .  S
C1022      C1023   1.369       .  D
C1023      C1024   1.554       .  S
C1023      C1188   1.509       .  S
C1024      C1028   1.558       .  S
C1024      C1026   1.553       .  S
C1024      H1030   1.107       .  S
C1025      H1031   1.083       .  S
C1025      C1026   1.371       .  D
C1026      C1168   1.505       .  S
C1027      H1032   1.086       .  S
C1027      C1028   1.359       .  D
C1028      C1178   1.501       .  S
C1033      C1034   1.534       .  S
C1033      C1039   1.528       .  S
C1033      C1037   1.546       .  S
C1033      C1128   1.553       .  S
C1034      H1041   1.086       .  S
C1034      C1035   1.368       .  D
C1035      C1036   1.555       .  S
C1035      C1148   1.507       .  S
C1036      C1040   1.552       .  S
C1036      C1038   1.544       .  S
C1036      H1042   1.108       .  S
C1037      H1043   1.082       .  S
C1037      C1038   1.366       .  D
C1038      C1138   1.494       .  S
C1039      H1044   1.087       .  S
C1039      C1040   1.370       .  D
C1040      C1191   1.503       .  S
C1045      C1046   1.545       .  S
C1045      C1051   1.535       .  S
C1045      C1049   1.519       .  S
C1045      C1111   1.550       .  S
C1046      H1053   1.084       .  S
C1046      C1047   1.370       .  D
C1047      C1048   1.545       .  S
C1047      C1118   1.503       .  S
C1048      C1052   1.568       .  S
C1048      C1050   1.556       .  S
C1048      H1054   1.095       .  S
C1049      H1055   1.087       .  S
C1049      C1050   1.357       .  D
C1050      C1171   1.491       .  S
C1051      H1056   1.069       .  S
C1051      C1052   1.377       .  D
C1052      C1181   1.543       .  S
C1057      C1058   1.533       .  S
C1057      C1063   1.528       .  S
C1057      C1061   1.546       .  S
C1057      C1101   1.552       .  S
C1058      H1065   1.085       .  S
C1058      C1059   1.366       .  D
C1059      C1060   1.556       .  S
C1059      C1151   1.511       .  S
C1060      C1064   1.552       .  S
C1060      C1062   1.545       .  S
C1060      H1066   1.108       .  S
C1061      H1067   1.083       .  S
C1061      C1062   1.367       .  D
C1062      C1141   1.495       .  S
C1063      H1068   1.086       .  S
C1063      C1064   1.371       .  D
C1064      C1121   1.502       .  S
O1069     Cu1077   1.999       .  S
O1069      C1079   1.276       .  A
O1070     Cu1077   2.005       .  S
O1070      C1080   1.276       .  A
O1071     Cu1077   2.003       .  S
O1071      C1081   1.277       .  A
O1072     Cu1077   2.004       .  S
O1072      C1082   1.277       .  A
O1073     Cu1078   2.018       .  S
O1073      C1082   1.277       .  A
O1074     Cu1078   2.008       .  S
O1074      C1081   1.277       .  A
O1075     Cu1078   2.019       .  S
O1075      C1080   1.279       .  A
O1076     Cu1078   2.013       .  S
O1076      C1079   1.278       .  A
Cu1077    Cu1078   2.365       .  S
C1079      C1098   1.490       .  S
C1080      C1228   1.492       .  S
C1081      C1131   1.480       .  S
C1082      C1201   1.473       .  S
O1083      C1093   1.278       .  A
O1084     Cu1091   1.996   1_565  S
O1085     Cu1091   2.024       .  S
O1086      C1096   1.279       .  A
O1087     Cu1092   2.003   1_565  S
O1088      C1095   1.276       .  A
O1089      C1094   1.281       .  A
O1090     Cu1092   2.009       .  S
C1093      C1108   1.491       .  S
C1094      C1261   1.478       .  S
C1095      C1161   1.498       .  S
C1096      C1211   1.488       .  S
C1097      C1098   1.416       .  A
C1097      C1102   1.411       .  A
C1097     Br1104   1.941       .  S
C1098      C1099   1.411       .  A
C1099      C1100   1.407       .  A
C1099     Br1106   1.934       .  S
C1100      C1101   1.419       .  A
C1100     Br1105   1.926       .  S
C1101      C1102   1.425       .  A
C1102     Br1103   1.934       .  S
C1107      C1108   1.414       .  A
C1107      C1112   1.412       .  A
C1107     Br1114   1.929       .  S
C1108      C1109   1.412       .  A
C1109      C1110   1.410       .  A
C1110      C1111   1.423       .  A
C1110     Br1115   1.939       .  S
C1111      C1112   1.421       .  A
C1112     Br1113   1.934       .  S
C1117      C1118   1.413       .  A
C1117      C1122   1.405       .  A
C1117     Br1124   1.917       .  S
C1118      C1119   1.415       .  A
C1119      C1120   1.415       .  A
C1119     Br1126   1.934       .  S
C1120      C1121   1.414       .  A
C1120     Br1125   1.920       .  S
C1121      C1122   1.409       .  A
C1122     Br1123   1.929       .  S
C1127      C1128   1.429       .  A
C1127      C1132   1.412       .  A
C1127     Br1134   1.934       .  S
C1128      C1129   1.425       .  A
C1129      C1130   1.404       .  A
C1129     Br1136   1.926       .  S
C1130      C1131   1.404       .  A
C1130     Br1135   1.935       .  S
C1131      C1132   1.409       .  A
C1132     Br1133   1.937       .  S
C1137     Br1144   1.927       .  S
C1138      C1139   1.415       .  A
C1139     Br1146   1.932       .  S
C1140     Br1145   1.924       .  S
C1141      C1142   1.418   1_655  A
C1142     Br1143   1.930       .  S
C1147      C1152   1.423   1_554  A
C1147     Br1154   1.928       .  S
C1148      C1149   1.415       .  A
C1149      C1150   1.401       .  A
C1149     Br1156   1.939       .  S
C1150     Br1155   1.941       .  S
C1151      C1152   1.419       .  A
C1152     Br1153   1.927       .  S
C1157      C1158   1.417       .  A
C1157      C1162   1.405       .  A
C1157     Br1164   1.925       .  S
C1158      C1159   1.422       .  A
C1159      C1160   1.412       .  A
C1160      C1161   1.417       .  A
C1161      C1162   1.415       .  A
C1162     Br1163   1.938       .  S
C1167      C1168   1.411       .  A
C1167      C1172   1.407       .  A
C1167     Br1174   1.920       .  S
C1168      C1169   1.420       .  A
C1169      C1170   1.411       .  A
C1169     Br1176   1.927       .  S
C1170      C1171   1.405       .  A
C1170     Br1175   1.930       .  S
C1171      C1172   1.415       .  A
C1172     Br1173   1.934       .  S
C1177      C1182   1.426       .  A
C1177     Br1184   1.928       .  S
C1178      C1179   1.408       .  A
C1179      C1180   1.401       .  A
C1179     Br1186   1.934       .  S
C1180     Br1185   1.938       .  S
C1181      C1182   1.429       .  A
C1182     Br1183   1.926       .  S
C1187      C1188   1.418       .  A
C1187      C1192   1.408       .  A
C1187     Br1194   1.921       .  S
C1188      C1189   1.417       .  A
C1189      C1190   1.413       .  A
C1189     Br1196   1.933       .  S
C1190      C1191   1.413       .  A
C1190     Br1195   1.922       .  S
C1191      C1192   1.409       .  A
C1192     Br1193   1.932       .  S
C1197      C1198   1.425       .  A
C1197      C1202   1.414       .  A
C1197     Br1204   1.928       .  S
C1198      C1199   1.426       .  A
C1199      C1200   1.400       .  A
C1199     Br1206   1.940       .  S
C1200      C1201   1.399       .  A
C1200     Br1205   1.927       .  S
C1201      C1202   1.405       .  A
C1202     Br1203   1.930       .  S
C1207      C1208   1.427       .  A
C1207      C1212   1.411       .  A
C1208      C1209   1.428       .  A
C1209      C1210   1.409       .  A
C1209     Br1216   1.937       .  S
C1210      C1211   1.409       .  A
C1210     Br1215   1.935       .  S
C1211      C1212   1.410       .  A
C1217      C1218   1.423       .  A
C1217      C1222   1.408       .  A
C1217     Br1224   1.941       .  S
C1218      C1219   1.411       .  A
C1219      C1220   1.408       .  A
C1219     Br1226   1.933       .  S
C1220      C1221   1.422       .  A
C1220     Br1225   1.942       .  S
C1221      C1222   1.408       .  A
C1222     Br1223   1.933       .  S
C1227      C1228   1.414       .  A
C1227      C1232   1.412       .  A
C1227     Br1234   1.940       .  S
C1228      C1229   1.412       .  A
C1229      C1230   1.412       .  A
C1229     Br1236   1.935       .  S
C1230      C1231   1.425       .  A
C1230     Br1235   1.939       .  S
C1231      C1232   1.422       .  A
C1232     Br1233   1.923       .  S
C1237      C1238   1.434       .  A
C1237     Br1244   1.935       .  S
C1239     Br1246   1.936       .  S
C1240      C1241   1.403       .  A
C1240     Br1245   1.922       .  S
C1242     Br1243   1.937       .  S
C1247      C1252   1.404       .  A
C1247     Br1254   1.930       .  S
C1248      C1249   1.415       .  A
C1249      C1250   1.422       .  A
C1249     Br1256   1.934       .  S
C1250     Br1255   1.927       .  S
C1251      C1252   1.419       .  A
C1252     Br1253   1.934       .  S
C1257      C1258   1.428       .  A
C1257      C1262   1.407       .  A
C1258      C1259   1.428       .  A
C1259      C1260   1.414       .  A
C1259     Br1266   1.936       .  S
C1260      C1261   1.405       .  A
C1260     Br1265   1.931       .  S
C1261      C1262   1.404       .  A
C1267      C1268   1.404       .  A
C1267      C1272   1.411       .  A
C1267     Br1274   1.937       .  S
C1268      C1269   1.404       .  A
C1269      C1270   1.413       .  A
C1269     Br1276   1.923       .  S
C1270      C1271   1.435       .  A
C1270     Br1275   1.938       .  S
C1271      C1272   1.434       .  A
C1272     Br1273   1.936       .  S
C1277      C1278   1.404       .  A
C1277      C1282   1.401       .  A
C1277     Br1284   1.930       .  S
C1279      C1280   1.423       .  A
C1279     Br1286   1.935       .  S
C1280      C1281   1.428       .  A
C1280     Br1285   1.925       .  S
C1282     Br1283   1.917       .  S
C1287      C1288   1.417       .  A
C1287      C1292   1.416       .  A
C1287     Br1294   1.928       .  S
C1288      C1289   1.410       .  A
C1289      C1290   1.412       .  A
C1289     Br1296   1.927       .  S
C1290      C1291   1.415       .  A
C1290     Br1295   1.917       .  S
C1291      C1292   1.415       .  A
C1292     Br1293   1.924       .  S
