geometry optimzed in LAMMPS
_audit_creation_date              2020-12-01 
_audit_creation_method            'lammps2cif' 
_symmetry_space_group_name_H-M    'P1' 
_symmetry_Int_Tables_number       1 
_symmetry_cell_setting            triclinic 
loop_ 
_symmetry_equiv_pos_as_xyz 
  x,y,z 
_cell_length_a                    33.47708975 
_cell_length_b                    33.47737241527385 
_cell_length_c                    28.00680451477874 
_cell_angle_alpha                 90.00167808780412 
_cell_angle_beta                  89.98936167446472 
_cell_angle_gamma                 89.99898298855001 
loop_ 
_atom_site_label 
_atom_site_type_symbol 
_atom_site_fract_x 
_atom_site_fract_y 
_atom_site_fract_z 
_atom_site_charge 
O1          O  0.19710584  0.27173460  0.29344475    -0.68000
O2          O  0.30296907  0.22819726  0.29346602    -0.68100
O3          O  0.22827171  0.19703615  0.29346596    -0.68100
O4          O  0.27180806  0.30289801  0.29344483    -0.68200
O5          O  0.27175323  0.30288339  0.03987061    -0.68100
O6          O  0.22820758  0.19702516  0.03988311    -0.68100
O7          O  0.30290978  0.22818215  0.03988456    -0.68100
O8          O  0.19705024  0.27172879  0.03986920    -0.68100
Ni9        Ni  0.25003887  0.24996663  0.29058972     1.25400
Ni10       Ni  0.24997919  0.24995505  0.04274254     1.25400
C11         C  0.17976929  0.27874268  0.99998918     0.94100
C12         C  0.32020887  0.22116209  0.00000925     0.94100
C13         C  0.22125090  0.17975239  0.33334718     0.94100
C14         C  0.27881944  0.32019458  0.33331889     0.94300
C15         C  0.18790577  0.06204076  0.00001436     0.03900
C16         C  0.23513588  0.01480779  0.12323078     0.08700
C17         C  0.26486710  0.48508007  0.12321770     0.08600
C18         C  0.27956117  0.47040369  0.16665127    -0.11900
C19         C  0.26489184  0.48509020  0.21009913     0.08700
C20         C  0.23516009  0.01481742  0.21011329     0.08600
C21         C  0.22046425  0.02949268  0.16667918    -0.11900
H22         H  0.19754677  0.05240900  0.16669039     0.10700
H23         H  0.30248039  0.44748891  0.16664005     0.10700
C24         C  0.31209832  0.43784775  0.99998339     0.03900
C25         C  0.06208904  0.31206982  0.99998773     0.03900
C26         C  0.01485401  0.26484498  0.12321947     0.08700
C27         C  0.48512741  0.23511373  0.12322931     0.08600
C28         C  0.47045444  0.22042972  0.16667596    -0.11900
C29         C  0.48514312  0.23511057  0.21011149     0.08700
C30         C  0.01486931  0.26484224  0.21010094     0.08600
C31         C  0.02954135  0.27952679  0.16665464    -0.11900
H32         H  0.05245631  0.30244477  0.16664586     0.10700
H33         H  0.44754015  0.19751098  0.16668476     0.10700
C34         C  0.43793351  0.18788133  0.33335594     0.03900
O35         O  0.05301542  0.02177444  0.29349568    -0.68000
O36         O  0.44715977  0.47822129  0.29341565    -0.68100
O37         O  0.47830965  0.05292722  0.29347257    -0.68100
O38         O  0.02186439  0.44707174  0.29343881    -0.68200
O39         O  0.02176054  0.44704137  0.03987251    -0.68100
O40         O  0.47821112  0.05289874  0.03987990    -0.68100
O41         O  0.44705666  0.47819436  0.03986701    -0.68100
O42         O  0.05291450  0.02174201  0.03988534    -0.68100
Ni43       Ni  0.50008892  0.00000040  0.29059007     1.25400
Ni44       Ni  0.49998463  0.49996938  0.04274185     1.25400
C45         C  0.07028614  0.02877565  0.33338548     0.94100
C46         C  0.42985143  0.47118612  0.33328099     0.94100
C47         C  0.47126924  0.07020297  0.33335536     0.94100
C48         C  0.02885971  0.42976827  0.33331122     0.94300
C49         C  0.45605264  0.11025649  0.33336656    -0.06900
C50         C  0.44590693  0.14483322  0.33336671    -0.08400
C51         C  0.46933948  0.21929315  0.25416201    -0.06900
C52         C  0.45568032  0.20562669  0.29050302    -0.08400
C53         C  0.46931036  0.21929794  0.07918894    -0.06900
C54         C  0.45564592  0.20563054  0.04285533    -0.08400
C55         C  0.04405982  0.38970968  0.33329938    -0.06900
C56         C  0.05417989  0.35512607  0.33329802    -0.08400
C57         C  0.04436389  0.29432179  0.29046940    -0.06900
C58         C  0.03069105  0.28065540  0.25413994    -0.08800
C59         C  0.04433272  0.29432366  0.04283420    -0.06900
C60         C  0.03066396  0.28065848  0.07917053    -0.08400
C61         C  0.35522222  0.44582192  0.33325898    -0.06900
C62         C  0.38979968  0.45596520  0.33325576    -0.08400
C63         C  0.28072311  0.46928398  0.25413577    -0.06900
C64         C  0.29440473  0.45562071  0.29046136    -0.08400
C65         C  0.28067606  0.46926550  0.07916724    -0.06900
C66         C  0.29434398  0.45559795  0.04283041    -0.08400
C67         C  0.11034552  0.04397429  0.33341010    -0.06900
C68         C  0.14492761  0.05409999  0.33340565    -0.08400
C69         C  0.21936087  0.03063826  0.25416617    -0.06900
C70         C  0.20570954  0.04430865  0.29051079    -0.08400
C71         C  0.20565089  0.04428900  0.04285897    -0.06900
C72         C  0.21931566  0.03062174  0.07919185    -0.08400
C73         C  0.20605717  0.13969202  0.33335542    -0.06900
C74         C  0.19586830  0.10509046  0.00001420    -0.08400
C75         C  0.10513774  0.30410040  0.99998339    -0.06900
C76         C  0.13971523  0.29395734  0.99998412    -0.08400
C77         C  0.36026789  0.20596128  0.00001422    -0.06900
C78         C  0.39484981  0.19583369  0.00001470    -0.08400
C79         C  0.29404142  0.36024612  0.33331048    -0.06900
C80         C  0.30419489  0.39482057  0.33330260    -0.08400
O81         O  0.19710454  0.27173972  0.62678325    -0.68000
O82         O  0.30296771  0.22820220  0.62679242    -0.68100
O83         O  0.22827045  0.19704132  0.62678983    -0.68100
O84         O  0.27180684  0.30290318  0.62678596    -0.68200
O85         O  0.27179028  0.30291344  0.37319999    -0.68100
O86         O  0.22825392  0.19705148  0.37322142    -0.68100
O87         O  0.30295112  0.22821249  0.37322143    -0.68100
O88         O  0.19708795  0.27175000  0.37320006    -0.68100
Ni89       Ni  0.25003752  0.24997206  0.62392222     1.25400
Ni90       Ni  0.25001971  0.24998309  0.37607644     1.25400
C91         C  0.17980528  0.27875555  0.33331899     0.94100
C92         C  0.32024929  0.22118618  0.33334714     0.94100
C93         C  0.22125084  0.17975234  0.66666806     0.94100
C94         C  0.27881940  0.32019458  0.66666296     0.94300
C95         C  0.18797762  0.06205993  0.33337120     0.03900
C96         C  0.23526789  0.01484975  0.45656305     0.08700
C97         C  0.26500141  0.48512428  0.45655272     0.08600
C98         C  0.27968982  0.47044642  0.49998955    -0.11900
C99         C  0.26500495  0.48512410  0.54343565     0.08700
C100        C  0.23527164  0.01484962  0.54344399     0.08600
C101        C  0.22058868  0.02953143  0.50000820    -0.11900
H102        H  0.19766662  0.05244315  0.50001549     0.10700
H103        H  0.30260713  0.44753005  0.49998233     0.10700
C104        C  0.31217013  0.43786866  0.33329314     0.03900
C105        C  0.06211971  0.31207276  0.33330858     0.03900
C106        C  0.01486309  0.26488777  0.45655432     0.08700
C107        C  0.48513900  0.23515403  0.45656177     0.08600
C108        C  0.47046014  0.22047152  0.50000566    -0.11900
C109        C  0.48514278  0.23515293  0.54344283     0.08700
C110        C  0.01486694  0.26488659  0.54343677     0.08600
C111        C  0.02954252  0.27957326  0.49999219    -0.11900
H112        H  0.05245728  0.30249130  0.49998696     0.10700
H113        H  0.44754891  0.19754967  0.50001091     0.10700
C114        C  0.43793351  0.18788133  0.66666437     0.03900
O115        O  0.05299430  0.02175246  0.62676429    -0.68000
O116        O  0.44713831  0.47819921  0.62680782    -0.68100
O117        O  0.47828758  0.05290534  0.62677667    -0.68100
O118        O  0.02184217  0.44704962  0.62679542    -0.68200
O119        O  0.02182311  0.44704497  0.37319423    -0.68100
O120        O  0.47826841  0.05290064  0.37322779    -0.68100
O121        O  0.44711940  0.47819453  0.37317089    -0.68100
O122        O  0.05297536  0.02174770  0.37325102    -0.68100
Ni123      Ni  0.50006556  0.99997665  0.62392029     1.25400
Ni124      Ni  0.50004513  0.49997159  0.37607674     1.25400
C125        C  0.07028612  0.02877569  0.66663562     0.94100
C126        C  0.42985146  0.47118606  0.66669199     0.94100
C127        C  0.47126927  0.07020295  0.66665153     0.94100
C128        C  0.02885968  0.42976832  0.66667606     0.94300
C129        C  0.45605258  0.11025643  0.66664600    -0.06900
C130        C  0.44590689  0.14483318  0.66664993    -0.08400
C131        C  0.46934010  0.21932692  0.58748968    -0.06900
C132        C  0.45568090  0.20564617  0.62382310    -0.08400
C133        C  0.46933383  0.21932813  0.41252196    -0.06900
C134        C  0.45567541  0.20564724  0.37619325    -0.08400
C135        C  0.04405973  0.38970972  0.66668238    -0.06900
C136        C  0.05417981  0.35512612  0.66668039    -0.08400
C137        C  0.04436327  0.29434159  0.62381670    -0.06900
C138        C  0.03068944  0.28069094  0.58747953    -0.08800
C139        C  0.04435749  0.29434298  0.37616267    -0.06900
C140        C  0.03068285  0.28069254  0.41250457    -0.08400
C141        C  0.35522226  0.44582197  0.66669926    -0.06900
C142        C  0.38979976  0.45596510  0.66670492    -0.08400
C143        C  0.28080702  0.46930009  0.58747796    -0.06900
C144        C  0.29445049  0.45562616  0.62381822    -0.08400
C145        C  0.28080078  0.46930090  0.41250067    -0.06900
C146        C  0.29444501  0.45562683  0.37615393    -0.08400
C147        C  0.11034555  0.04397419  0.66662356    -0.06900
C148        C  0.14492764  0.05409992  0.66663097    -0.08400
C149        C  0.21944353  0.03065244  0.58749134    -0.06900
C150        C  0.20575521  0.04431288  0.62382140    -0.08400
C151        C  0.20574939  0.04431338  0.37620181    -0.06900
C152        C  0.21943693  0.03065316  0.41252546    -0.08400
C153        C  0.20605726  0.13969191  0.66666876    -0.06900
C154        C  0.19593387  0.10510979  0.33336281    -0.08400
C155        C  0.10516666  0.30409340  0.33330756    -0.06900
C156        C  0.13974595  0.29395637  0.33331142    -0.08400
C157        C  0.36030331  0.20597251  0.33335468    -0.06900
C158        C  0.39488200  0.19583417  0.33335806    -0.08400
C159        C  0.29404146  0.36024615  0.66666204    -0.06900
C160        C  0.30419488  0.39482065  0.66666515    -0.08400
O161        O  0.19706690  0.27171851  0.96011392    -0.68000
O162        O  0.30292639  0.22817185  0.96012920    -0.68100
O163        O  0.22822436  0.19701487  0.96012786    -0.68100
O164        O  0.27176983  0.30287314  0.96011530    -0.68200
O165        O  0.27179142  0.30290822  0.70654108    -0.68100
O166        O  0.22825502  0.19704626  0.70654526    -0.68100
O167        O  0.30295249  0.22820744  0.70654779    -0.68100
O168        O  0.19708918  0.27174492  0.70653851    -0.68100
Ni169      Ni  0.24999709  0.24994400  0.95725591     1.25400
Ni170      Ni  0.25002099  0.24997758  0.70940883     1.25400
C171        C  0.17980525  0.27875561  0.66665954     0.94100
C172        C  0.32024933  0.22118619  0.66667138     0.94100
C173        C  0.22120068  0.17972948  0.00000751     0.94100
C174        C  0.27878034  0.32016729  0.99999091     0.94300
C175        C  0.18797766  0.06205987  0.66665740     0.03900
C176        C  0.23515639  0.01481751  0.78989377     0.08700
C177        C  0.26488813  0.48509028  0.78988923     0.08600
C178        C  0.27956124  0.47040364  0.83332780    -0.11900
C179        C  0.26487071  0.48507994  0.87677069     0.08700
C180        C  0.23513954  0.01480771  0.87677632     0.08600
C181        C  0.22046411  0.02949264  0.83333720    -0.11900
H182        H  0.19754664  0.05240887  0.83334050     0.10700
H183        H  0.30248040  0.44748903  0.83332448     0.10700
C184        C  0.31217016  0.43786877  0.66667363     0.03900
C185        C  0.06211968  0.31207281  0.66666682     0.03900
C186        C  0.01486541  0.26484344  0.78989014     0.08700
C187        C  0.48513942  0.23511163  0.78989312     0.08600
C188        C  0.47045437  0.22042971  0.83333536    -0.11900
C189        C  0.48513117  0.23511271  0.87677527     0.08700
C190        C  0.01485785  0.26484395  0.87677160     0.08600
C191        C  0.02954133  0.27952689  0.83332968    -0.11900
H192        H  0.05245628  0.30244485  0.83332788     0.10700
H193        H  0.44754017  0.19751110  0.83333712     0.10700
C194        C  0.43790103  0.18787835  0.00001009     0.03900
O195        O  0.05293349  0.02174670  0.96012996    -0.68000
O196        O  0.44707564  0.47819894  0.96011179    -0.68100
O197        O  0.47823016  0.05290348  0.96012463    -0.68100
O198        O  0.02177942  0.44704582  0.96011710    -0.68200
O199        O  0.02184533  0.44706718  0.70655086    -0.68100
O200        O  0.47829060  0.05292251  0.70653190    -0.68100
O201        O  0.44714083  0.47821655  0.70656307    -0.68100
O202        O  0.05299641  0.02176983  0.70651963    -0.68100
Ni203      Ni  0.50000501  0.99997435  0.95725518     1.25400
Ni204      Ni  0.50006854  0.49999535  0.70940696     1.25400
C205        C  0.07021463  0.02875895  0.00001054     0.94100
C206        C  0.42977753  0.47117609  0.99998653     0.94100
C207        C  0.47120449  0.07019147  0.00000351     0.94100
C208        C  0.02878829  0.42975444  0.99999364     0.94300
C209        C  0.45599933  0.11024892  0.00000642    -0.06900
C210        C  0.44586571  0.14482898  0.00000824    -0.08400
C211        C  0.46931674  0.21929676  0.92082268    -0.06900
C212        C  0.45565146  0.20562954  0.95716099    -0.08400
C213        C  0.46933323  0.21929442  0.74584962    -0.06900
C214        C  0.45567482  0.20562779  0.70951335    -0.08400
C215        C  0.04399884  0.38969970  0.99999096    -0.06900
C216        C  0.05413387  0.35512040  0.99998922    -0.08400
C217        C  0.04433853  0.29432233  0.95714520    -0.06900
C218        C  0.03067061  0.28065704  0.92081352    -0.08800
C219        C  0.04435818  0.29432318  0.70951002    -0.06900
C220        C  0.03068439  0.28065698  0.74584412    -0.08400
C221        C  0.35514819  0.44581227  0.99997912    -0.06900
C222        C  0.38972506  0.45595728  0.99998034    -0.08400
C223        C  0.28068238  0.46926472  0.92081142    -0.06900
C224        C  0.29434951  0.45559729  0.95714176    -0.08400
C225        C  0.28071678  0.46928491  0.74584279    -0.06900
C226        C  0.29439929  0.45562163  0.70951073    -0.08400
C227        C  0.11027331  0.04395888  0.00001678    -0.06900
C228        C  0.14485501  0.05408561  0.00001830    -0.08400
C229        C  0.21932219  0.03062116  0.92082502    -0.06900
C230        C  0.20565659  0.04428851  0.95716437    -0.08400
C231        C  0.20570387  0.04430903  0.70951238    -0.06900
C232        C  0.21935440  0.03063891  0.74585061    -0.08400
C233        C  0.20599849  0.13967126  0.00001210    -0.06900
C234        C  0.19593390  0.10510970  0.66666550    -0.08400
C235        C  0.10516663  0.30409352  0.66665912    -0.06900
C236        C  0.13974591  0.29395647  0.66665698    -0.08400
C237        C  0.36030338  0.20597263  0.66667371    -0.06900
C238        C  0.39488204  0.19583424  0.66667151    -0.08400
C239        C  0.29399474  0.36022074  0.99998625    -0.06900
C240        C  0.30413665  0.39479805  0.99998382    -0.08400
O241        O  0.19710590  0.77173465  0.29344476    -0.68000
O242        O  0.30296909  0.72819712  0.29346602    -0.68100
O243        O  0.22827180  0.69703603  0.29346596    -0.68100
O244        O  0.27180817  0.80289800  0.29344483    -0.68200
O245        O  0.27175302  0.80288349  0.03987060    -0.68100
O246        O  0.22820763  0.69702514  0.03988311    -0.68100
O247        O  0.30290973  0.72818211  0.03988456    -0.68100
O248        O  0.19705019  0.77172882  0.03986920    -0.68100
Ni249      Ni  0.25003893  0.74996657  0.29058972     1.25400
Ni250      Ni  0.24997913  0.74995507  0.04274254     1.25400
C251        C  0.17976923  0.77874262  0.99998917     0.94100
C252        C  0.32020885  0.72116200  0.00000926     0.94100
C253        C  0.22125091  0.67975231  0.33334718     0.94100
C254        C  0.27881945  0.82019463  0.33331889     0.94300
C255        C  0.18790577  0.56204074  0.00001435     0.03900
C256        C  0.23513594  0.51480788  0.12323076     0.08700
C257        C  0.26486709  0.98508007  0.12321772     0.08600
C258        C  0.27956121  0.97040361  0.16665130    -0.11900
C259        C  0.26489175  0.98509017  0.21009914     0.08700
C260        C  0.23516020  0.51481750  0.21011330     0.08600
C261        C  0.22046437  0.52949278  0.16667919    -0.11900
H262        H  0.19754690  0.55240913  0.16669043     0.10700
H263        H  0.30248027  0.94748892  0.16664012     0.10700
C264        C  0.31209829  0.93784777  0.99998338     0.03900
C265        C  0.06208908  0.81206982  0.99998772     0.03900
C266        C  0.01485398  0.76484502  0.12321943     0.08700
C267        C  0.48512737  0.73511381  0.12322930     0.08600
C268        C  0.47045433  0.72042982  0.16667595    -0.11900
C269        C  0.48514314  0.73511062  0.21011146     0.08700
C270        C  0.01486920  0.76484238  0.21010093     0.08600
C271        C  0.02954134  0.77952686  0.16665461    -0.11900
H272        H  0.05245635  0.80244479  0.16664578     0.10700
H273        H  0.44754008  0.69751115  0.16668475     0.10700
C274        C  0.43793354  0.68788133  0.33335593     0.03900
O275        O  0.05301545  0.52177443  0.29349567    -0.68000
O276        O  0.44715977  0.97822126  0.29341565    -0.68100
O277        O  0.47830970  0.55292711  0.29347258    -0.68100
O278        O  0.02186441  0.94707186  0.29343881    -0.68200
O279        O  0.02176035  0.94704124  0.03987252    -0.68100
O280        O  0.47821117  0.55289878  0.03987991    -0.68100
O281        O  0.44705664  0.97819435  0.03986701    -0.68100
O282        O  0.05291447  0.52174219  0.03988534    -0.68100
Ni283      Ni  0.50008900  0.50000033  0.29059007     1.25400
Ni284      Ni  0.49998461  0.99996931  0.04274185     1.25400
C285        C  0.07028612  0.52877562  0.33338550     0.94100
C286        C  0.42985147  0.97118608  0.33328099     0.94100
C287        C  0.47126929  0.57020293  0.33335533     0.94100
C288        C  0.02885979  0.92976836  0.33331120     0.94300
C289        C  0.45605270  0.61025646  0.33336648    -0.06900
C290        C  0.44590700  0.64483321  0.33336668    -0.08400
C291        C  0.46933960  0.71929311  0.25416199    -0.06900
C292        C  0.45568042  0.70562674  0.29050305    -0.08400
C293        C  0.46931040  0.71929800  0.07918892    -0.06900
C294        C  0.45564600  0.70563060  0.04285529    -0.08400
C295        C  0.04405992  0.88970978  0.33329936    -0.06900
C296        C  0.05417993  0.85512615  0.33329806    -0.08400
C297        C  0.04436390  0.79432189  0.29046933    -0.06900
C298        C  0.03069093  0.78065555  0.25413993    -0.08800
C299        C  0.04433276  0.79432369  0.04283420    -0.06900
C300        C  0.03066392  0.78065846  0.07917046    -0.08400
C301        C  0.35522224  0.94582200  0.33325899    -0.06900
C302        C  0.38979973  0.95596514  0.33325578    -0.08400
C303        C  0.28072301  0.96928404  0.25413581    -0.06900
C304        C  0.29440472  0.95562082  0.29046138    -0.08400
C305        C  0.28067592  0.96926540  0.07916723    -0.06900
C306        C  0.29434385  0.95559796  0.04283036    -0.08400
C307        C  0.11034553  0.54397416  0.33341016    -0.06900
C308        C  0.14492764  0.55409984  0.33340564    -0.08400
C309        C  0.21936099  0.53063834  0.25416616    -0.06900
C310        C  0.20570961  0.54430867  0.29051077    -0.08400
C311        C  0.20565079  0.54428893  0.04285897    -0.06900
C312        C  0.21931568  0.53062179  0.07919184    -0.08400
C313        C  0.20605726  0.63969190  0.33335546    -0.06900
C314        C  0.19586832  0.60509044  0.00001425    -0.08400
C315        C  0.10513776  0.80410045  0.99998340    -0.06900
C316        C  0.13971519  0.79395724  0.99998415    -0.08400
C317        C  0.36026793  0.70596128  0.00001423    -0.06900
C318        C  0.39484988  0.69583376  0.00001469    -0.08400
C319        C  0.29404148  0.86024619  0.33331049    -0.06900
C320        C  0.30419496  0.89482065  0.33330257    -0.08400
O321        O  0.19710464  0.77173983  0.62678324    -0.68000
O322        O  0.30296779  0.72820231  0.62679241    -0.68100
O323        O  0.22827056  0.69704130  0.62678983    -0.68100
O324        O  0.27180693  0.80290322  0.62678596    -0.68200
O325        O  0.27179018  0.80291350  0.37319998    -0.68100
O326        O  0.22825382  0.69705148  0.37322142    -0.68100
O327        O  0.30295115  0.72821255  0.37322142    -0.68100
O328        O  0.19708791  0.77175001  0.37320006    -0.68100
Ni329      Ni  0.25003761  0.74997211  0.62392221     1.25400
Ni330      Ni  0.25001966  0.74998310  0.37607643     1.25400
C331        C  0.17980530  0.77875563  0.33331897     0.94100
C332        C  0.32024933  0.72118619  0.33334715     0.94100
C333        C  0.22125091  0.67975231  0.66666806     0.94100
C334        C  0.27881937  0.82019463  0.66666296     0.94300
C335        C  0.18797765  0.56205983  0.33337121     0.03900
C336        C  0.23526791  0.51484967  0.45656305     0.08700
C337        C  0.26500126  0.98512424  0.45655270     0.08600
C338        C  0.27968985  0.97044648  0.49998950    -0.11900
C339        C  0.26500506  0.98512419  0.54343563     0.08700
C340        C  0.23527156  0.51484959  0.54344397     0.08600
C341        C  0.22058869  0.52953134  0.50000815    -0.11900
H342        H  0.19766657  0.55244311  0.50001537     0.10700
H343        H  0.30260723  0.94753018  0.49998223     0.10700
C344        C  0.31217015  0.93786875  0.33329314     0.03900
C345        C  0.06211968  0.81207281  0.33330858     0.03900
C346        C  0.01486303  0.76488769  0.45655433     0.08700
C347        C  0.48513899  0.73515400  0.45656177     0.08600
C348        C  0.47046017  0.72047141  0.50000566    -0.11900
C349        C  0.48514282  0.73515285  0.54344283     0.08700
C350        C  0.01486684  0.76488654  0.54343679     0.08600
C351        C  0.02954250  0.77957308  0.49999219    -0.11900
H352        H  0.05245739  0.80249105  0.49998695     0.10700
H353        H  0.44754903  0.69754961  0.50001091     0.10700
C354        C  0.43793353  0.68788129  0.66666436     0.03900
O355        O  0.05299434  0.52175232  0.62676429    -0.68000
O356        O  0.44713834  0.97819927  0.62680784    -0.68100
O357        O  0.47828737  0.55290524  0.62677668    -0.68100
O358        O  0.02184210  0.94704964  0.62679543    -0.68200
O359        O  0.02182317  0.94704499  0.37319423    -0.68100
O360        O  0.47826849  0.55290068  0.37322780    -0.68100
O361        O  0.44711943  0.97819453  0.37317088    -0.68100
O362        O  0.05297529  0.52174770  0.37325101    -0.68100
Ni363      Ni  0.50006544  0.49997656  0.62392029     1.25400
Ni364      Ni  0.50004513  0.99997160  0.37607674     1.25400
C365        C  0.07028616  0.52877557  0.66663560     0.94100
C366        C  0.42985143  0.97118611  0.66669198     0.94100
C367        C  0.47126921  0.57020293  0.66665153     0.94100
C368        C  0.02885967  0.92976832  0.66667606     0.94300
C369        C  0.45605264  0.61025645  0.66664598    -0.06900
C370        C  0.44590696  0.64483319  0.66664996    -0.08400
C371        C  0.46934018  0.71932678  0.58748967    -0.06900
C372        C  0.45568094  0.70564604  0.62382307    -0.08400
C373        C  0.46933368  0.71932820  0.41252199    -0.06900
C374        C  0.45567531  0.70564721  0.37619331    -0.08400
C375        C  0.04405978  0.88970972  0.66668231    -0.06900
C376        C  0.05417988  0.85512611  0.66668033    -0.08400
C377        C  0.04436329  0.79434153  0.62381668    -0.06900
C378        C  0.03068943  0.78069090  0.58747951    -0.08800
C379        C  0.04435743  0.79434290  0.37616263    -0.06900
C380        C  0.03068285  0.78069238  0.41250454    -0.08400
C381        C  0.35522218  0.94582202  0.66669930    -0.06900
C382        C  0.38979967  0.95596518  0.66670488    -0.08400
C383        C  0.28080713  0.96930013  0.58747794    -0.06900
C384        C  0.29445049  0.95562607  0.62381818    -0.08400
C385        C  0.28080064  0.96930088  0.41250064    -0.06900
C386        C  0.29444500  0.95562681  0.37615397    -0.08400
C387        C  0.11034554  0.54397421  0.66662355    -0.06900
C388        C  0.14492764  0.55409989  0.66663103    -0.08400
C389        C  0.21944338  0.53065244  0.58749129    -0.06900
C390        C  0.20575509  0.54431283  0.62382141    -0.08400
C391        C  0.20574939  0.54431319  0.37620179    -0.06900
C392        C  0.21943685  0.53065295  0.41252546    -0.08400
C393        C  0.20605715  0.63969194  0.66666875    -0.06900
C394        C  0.19593393  0.60510967  0.33336287    -0.08400
C395        C  0.10516664  0.80409349  0.33330758    -0.06900
C396        C  0.13974594  0.79395646  0.33331137    -0.08400
C397        C  0.36030337  0.70597262  0.33335470    -0.06900
C398        C  0.39488205  0.69583424  0.33335802    -0.08400
C399        C  0.29404136  0.86024619  0.66666206    -0.06900
C400        C  0.30419487  0.89482063  0.66666515    -0.08400
O401        O  0.19706687  0.77171855  0.96011390    -0.68000
O402        O  0.30292638  0.72817177  0.96012920    -0.68100
O403        O  0.22822424  0.69701498  0.96012786    -0.68100
O404        O  0.27176989  0.80287320  0.96011530    -0.68200
O405        O  0.27179131  0.80290830  0.70654108    -0.68100
O406        O  0.22825514  0.69704620  0.70654525    -0.68100
O407        O  0.30295252  0.72820753  0.70654778    -0.68100
O408        O  0.19708920  0.77174484  0.70653850    -0.68100
Ni409      Ni  0.24999708  0.74994406  0.95725590     1.25400
Ni410      Ni  0.25002101  0.74997759  0.70940882     1.25400
C411        C  0.17980531  0.77875567  0.66665954     0.94100
C412        C  0.32024937  0.72118626  0.66667139     0.94100
C413        C  0.22120068  0.67972950  0.00000750     0.94100
C414        C  0.27878027  0.82016737  0.99999092     0.94300
C415        C  0.18797765  0.56205986  0.66665743     0.03900
C416        C  0.23515631  0.51481737  0.78989376     0.08700
C417        C  0.26488813  0.98509034  0.78988922     0.08600
C418        C  0.27956120  0.97040362  0.83332779    -0.11900
C419        C  0.26487073  0.98507997  0.87677068     0.08700
C420        C  0.23513953  0.51480770  0.87677633     0.08600
C421        C  0.22046413  0.52949261  0.83333719    -0.11900
H422        H  0.19754673  0.55240891  0.83334048     0.10700
H423        H  0.30248026  0.94748896  0.83332445     0.10700
C424        C  0.31217010  0.93786873  0.66667364     0.03900
C425        C  0.06211969  0.81207277  0.66666681     0.03900
C426        C  0.01486540  0.76484345  0.78989017     0.08700
C427        C  0.48513934  0.73511164  0.78989311     0.08600
C428        C  0.47045439  0.72042976  0.83333536    -0.11900
C429        C  0.48513116  0.73511269  0.87677527     0.08700
C430        C  0.01485790  0.76484378  0.87677163     0.08600
C431        C  0.02954138  0.77952673  0.83332973    -0.11900
H432        H  0.05245641  0.80244473  0.83332798     0.10700
H433        H  0.44754008  0.69751104  0.83333711     0.10700
C434        C  0.43790109  0.68787832  0.00001011     0.03900
O435        O  0.05293341  0.52174672  0.96012996    -0.68000
O436        O  0.44707561  0.97819903  0.96011179    -0.68100
O437        O  0.47823017  0.55290336  0.96012463    -0.68100
O438        O  0.02177954  0.94704589  0.96011710    -0.68200
O439        O  0.02184533  0.94706717  0.70655087    -0.68100
O440        O  0.47829062  0.55292254  0.70653190    -0.68100
O441        O  0.44714079  0.97821662  0.70656308    -0.68100
O442        O  0.05299649  0.52176969  0.70651963    -0.68100
Ni443      Ni  0.50000502  0.49997427  0.95725518     1.25400
Ni444      Ni  0.50006858  0.99999538  0.70940696     1.25400
C445        C  0.07021458  0.52875901  0.00001052     0.94100
C446        C  0.42977752  0.97117610  0.99998652     0.94100
C447        C  0.47120454  0.57019141  0.00000348     0.94100
C448        C  0.02878832  0.92975444  0.99999363     0.94300
C449        C  0.45599938  0.61024886  0.00000635    -0.06900
C450        C  0.44586576  0.64482891  0.00000828    -0.08400
C451        C  0.46931675  0.71929674  0.92082269    -0.06900
C452        C  0.45565153  0.70562946  0.95716099    -0.08400
C453        C  0.46933316  0.71929439  0.74584964    -0.06900
C454        C  0.45567480  0.70562779  0.70951333    -0.08400
C455        C  0.04399893  0.88969972  0.99999091    -0.06900
C456        C  0.05413391  0.85512041  0.99998917    -0.08400
C457        C  0.04433856  0.79432222  0.95714522    -0.06900
C458        C  0.03067056  0.78065690  0.92081360    -0.08800
C459        C  0.04435807  0.79432328  0.70951002    -0.06900
C460        C  0.03068437  0.78065706  0.74584416    -0.08400
C461        C  0.35514815  0.94581240  0.99997911    -0.06900
C462        C  0.38972505  0.95595732  0.99998033    -0.08400
C463        C  0.28068222  0.96926459  0.92081141    -0.06900
C464        C  0.29434937  0.95559716  0.95714175    -0.08400
C465        C  0.28071675  0.96928495  0.74584277    -0.06900
C466        C  0.29439915  0.95562155  0.70951072    -0.08400
C467        C  0.11027332  0.54395874  0.00001675    -0.06900
C468        C  0.14485501  0.55408550  0.00001825    -0.08400
C469        C  0.21932228  0.53062123  0.92082503    -0.06900
C470        C  0.20565665  0.54428858  0.95716436    -0.08400
C471        C  0.20570395  0.54430907  0.70951239    -0.06900
C472        C  0.21935441  0.53063881  0.74585058    -0.08400
C473        C  0.20599855  0.63967124  0.00001207    -0.06900
C474        C  0.19593386  0.60510971  0.66666546    -0.08400
C475        C  0.10516664  0.80409344  0.66665917    -0.06900
C476        C  0.13974597  0.79395653  0.66665701    -0.08400
C477        C  0.36030336  0.70597253  0.66667376    -0.06900
C478        C  0.39488202  0.69583410  0.66667150    -0.08400
C479        C  0.29399480  0.86022077  0.99998628    -0.06900
C480        C  0.30413675  0.89479806  0.99998386    -0.08400
O481        O  0.69710575  0.27173457  0.29344475    -0.68000
O482        O  0.80296907  0.22819728  0.29346602    -0.68100
O483        O  0.72827168  0.19703606  0.29346596    -0.68100
O484        O  0.77180792  0.30289802  0.29344483    -0.68200
O485        O  0.77175308  0.30288343  0.03987060    -0.68100
O486        O  0.72820768  0.19702513  0.03988311    -0.68100
O487        O  0.80290982  0.22818219  0.03988456    -0.68100
O488        O  0.69705022  0.27172878  0.03986919    -0.68100
Ni489      Ni  0.75003879  0.24996660  0.29058971     1.25400
Ni490      Ni  0.74997918  0.24995505  0.04274253     1.25400
C491        C  0.67976926  0.27874266  0.99998918     0.94100
C492        C  0.82020891  0.22116211  0.00000924     0.94100
C493        C  0.72125093  0.17975232  0.33334719     0.94100
C494        C  0.77881936  0.32019459  0.33331888     0.94300
C495        C  0.68790580  0.06204076  0.00001437     0.03900
C496        C  0.73513593  0.01480780  0.12323076     0.08700
C497        C  0.76486712  0.48508011  0.12321771     0.08600
C498        C  0.77956123  0.47040371  0.16665129    -0.11900
C499        C  0.76489177  0.48509017  0.21009914     0.08700
C500        C  0.73516008  0.01481737  0.21011329     0.08600
C501        C  0.72046420  0.02949266  0.16667917    -0.11900
H502        H  0.69754677  0.05240893  0.16669038     0.10700
H503        H  0.80248042  0.44748900  0.16664008     0.10700
C504        C  0.81209835  0.43784775  0.99998339     0.03900
C505        C  0.56208907  0.31206983  0.99998772     0.03900
C506        C  0.51485403  0.26484495  0.12321947     0.08700
C507        C  0.98512745  0.23511370  0.12322931     0.08600
C508        C  0.97045442  0.22042975  0.16667597    -0.11900
C509        C  0.98514320  0.23511054  0.21011148     0.08700
C510        C  0.51486923  0.26484228  0.21010096     0.08600
C511        C  0.52954140  0.27952673  0.16665466    -0.11900
H512        H  0.55245641  0.30244466  0.16664590     0.10700
H513        H  0.94754008  0.19751108  0.16668478     0.10700
C514        C  0.93793354  0.18788134  0.33335593     0.03900
O515        O  0.55301542  0.02177444  0.29349568    -0.68000
O516        O  0.94715978  0.47822128  0.29341565    -0.68100
O517        O  0.97830954  0.05292721  0.29347257    -0.68100
O518        O  0.52186450  0.44707175  0.29343881    -0.68200
O519        O  0.52176046  0.44704136  0.03987251    -0.68100
O520        O  0.97821121  0.05289876  0.03987991    -0.68100
O521        O  0.94705670  0.47819435  0.03986702    -0.68100
O522        O  0.55291448  0.02174205  0.03988534    -0.68100
Ni523      Ni  0.00008889  0.00000040  0.29059006     1.25400
Ni524      Ni  0.99998465  0.49996938  0.04274186     1.25400
C525        C  0.57028611  0.02877567  0.33338548     0.94100
C526        C  0.92985148  0.47118608  0.33328099     0.94100
C527        C  0.97126925  0.07020299  0.33335536     0.94100
C528        C  0.52885980  0.42976827  0.33331122     0.94300
C529        C  0.95605256  0.11025647  0.33336658    -0.06900
C530        C  0.94590686  0.14483320  0.33336672    -0.08400
C531        C  0.96933962  0.21929313  0.25416203    -0.06900
C532        C  0.95568046  0.20562668  0.29050304    -0.08400
C533        C  0.96931043  0.21929791  0.07918893    -0.06900
C534        C  0.95564591  0.20563053  0.04285535    -0.08400
C535        C  0.54405981  0.38970965  0.33329938    -0.06900
C536        C  0.55417994  0.35512606  0.33329801    -0.08400
C537        C  0.54436394  0.29432179  0.29046937    -0.06900
C538        C  0.53069098  0.28065542  0.25413997    -0.08800
C539        C  0.54433279  0.29432368  0.04283422    -0.06900
C540        C  0.53066395  0.28065849  0.07917051    -0.08400
C541        C  0.85522226  0.44582193  0.33325902    -0.06900
C542        C  0.88979973  0.45596518  0.33325576    -0.08400
C543        C  0.78072305  0.46928396  0.25413578    -0.06900
C544        C  0.79440478  0.45562072  0.29046133    -0.08400
C545        C  0.78067599  0.46926547  0.07916722    -0.06900
C546        C  0.79434393  0.45559792  0.04283040    -0.08400
C547        C  0.61034548  0.04397427  0.33341010    -0.06900
C548        C  0.64492758  0.05409996  0.33340564    -0.08400
C549        C  0.71936096  0.03063827  0.25416620    -0.06900
C550        C  0.70570961  0.04430868  0.29051081    -0.08400
C551        C  0.70565085  0.04428899  0.04285900    -0.06900
C552        C  0.71931573  0.03062176  0.07919183    -0.08400
C553        C  0.70605723  0.13969195  0.33335548    -0.06900
C554        C  0.69586840  0.10509045  0.00001422    -0.08400
C555        C  0.60513775  0.30410040  0.99998335    -0.06900
C556        C  0.63971522  0.29395732  0.99998416    -0.08400
C557        C  0.86026794  0.20596126  0.00001421    -0.06900
C558        C  0.89484986  0.19583372  0.00001466    -0.08400
C559        C  0.79404144  0.36024610  0.33331047    -0.06900
C560        C  0.80419487  0.39482058  0.33330260    -0.08400
O561        O  0.69710460  0.27173972  0.62678324    -0.68000
O562        O  0.80296773  0.22820223  0.62679241    -0.68100
O563        O  0.72827053  0.19704129  0.62678983    -0.68100
O564        O  0.77180692  0.30290316  0.62678596    -0.68200
O565        O  0.77179022  0.30291345  0.37319998    -0.68100
O566        O  0.72825389  0.19705147  0.37322142    -0.68100
O567        O  0.80295112  0.22821246  0.37322141    -0.68100
O568        O  0.69708793  0.27175001  0.37320005    -0.68100
Ni569      Ni  0.75003757  0.24997206  0.62392221     1.25400
Ni570      Ni  0.75001968  0.24998309  0.37607643     1.25400
C571        C  0.67980523  0.27875555  0.33331900     0.94100
C572        C  0.82024930  0.22118617  0.33334713     0.94100
C573        C  0.72125085  0.17975234  0.66666805     0.94100
C574        C  0.77881941  0.32019457  0.66666296     0.94300
C575        C  0.68797760  0.06205994  0.33337119     0.03900
C576        C  0.73526785  0.01484974  0.45656304     0.08700
C577        C  0.76500130  0.48512424  0.45655272     0.08600
C578        C  0.77968974  0.47044642  0.49998953    -0.11900
C579        C  0.76500498  0.48512414  0.54343564     0.08700
C580        C  0.73527155  0.01484962  0.54344398     0.08600
C581        C  0.72058870  0.02953144  0.50000818    -0.11900
H582        H  0.69766661  0.05244325  0.50001545     0.10700
H583        H  0.80260708  0.44752997  0.49998226     0.10700
C584        C  0.81217013  0.43786868  0.33329314     0.03900
C585        C  0.56211970  0.31207275  0.33330858     0.03900
C586        C  0.51486298  0.26488781  0.45655432     0.08700
C587        C  0.98513905  0.23515402  0.45656177     0.08600
C588        C  0.97046014  0.22047157  0.50000567    -0.11900
C589        C  0.98514287  0.23515290  0.54344282     0.08700
C590        C  0.51486686  0.26488662  0.54343678     0.08600
C591        C  0.52954239  0.27957326  0.49999218    -0.11900
H592        H  0.55245725  0.30249130  0.49998694     0.10700
H593        H  0.94754883  0.19754983  0.50001093     0.10700
C594        C  0.93793353  0.18788133  0.66666436     0.03900
O595        O  0.55299443  0.02175245  0.62676429    -0.68000
O596        O  0.94713829  0.47819919  0.62680784    -0.68100
O597        O  0.97828743  0.05290531  0.62677667    -0.68100
O598        O  0.52184215  0.44704960  0.62679542    -0.68200
O599        O  0.52182322  0.44704498  0.37319423    -0.68100
O600        O  0.97826850  0.05290069  0.37322779    -0.68100
O601        O  0.94711941  0.47819451  0.37317089    -0.68100
O602        O  0.55297533  0.02174775  0.37325102    -0.68100
Ni603      Ni  0.00006543  0.99997665  0.62392029     1.25400
Ni604      Ni  0.00004504  0.49997160  0.37607674     1.25400
C605        C  0.57028622  0.02877569  0.66663562     0.94100
C606        C  0.92985141  0.47118607  0.66669199     0.94100
C607        C  0.97126925  0.07020295  0.66665154     0.94100
C608        C  0.52885977  0.42976834  0.66667607     0.94300
C609        C  0.95605267  0.11025646  0.66664602    -0.06900
C610        C  0.94590698  0.14483321  0.66664992    -0.08400
C611        C  0.96934017  0.21932691  0.58748968    -0.06900
C612        C  0.95568086  0.20564619  0.62382306    -0.08400
C613        C  0.96933377  0.21932817  0.41252199    -0.06900
C614        C  0.95567536  0.20564724  0.37619329    -0.08400
C615        C  0.54405988  0.38970975  0.66668237    -0.06900
C616        C  0.55417991  0.35512613  0.66668038    -0.08400
C617        C  0.54436337  0.29434159  0.62381666    -0.06900
C618        C  0.53068951  0.28069090  0.58747951    -0.08800
C619        C  0.54435740  0.29434299  0.37616265    -0.06900
C620        C  0.53068272  0.28069256  0.41250455    -0.08400
C621        C  0.85522219  0.44582199  0.66669929    -0.06900
C622        C  0.88979968  0.45596513  0.66670490    -0.08400
C623        C  0.78080700  0.46930007  0.58747795    -0.06900
C624        C  0.79445050  0.45562614  0.62381819    -0.08400
C625        C  0.78080065  0.46930088  0.41250064    -0.06900
C626        C  0.79444493  0.45562684  0.37615391    -0.08400
C627        C  0.61034562  0.04397423  0.66662356    -0.06900
C628        C  0.64492768  0.05409996  0.66663097    -0.08400
C629        C  0.71944341  0.03065242  0.58749130    -0.06900
C630        C  0.70575514  0.04431286  0.62382140    -0.08400
C631        C  0.70574940  0.04431340  0.37620180    -0.06900
C632        C  0.71943687  0.03065314  0.41252546    -0.08400
C633        C  0.70605725  0.13969193  0.66666874    -0.06900
C634        C  0.69593380  0.10510977  0.33336282    -0.08400
C635        C  0.60516663  0.30409337  0.33330760    -0.06900
C636        C  0.63974591  0.29395636  0.33331144    -0.08400
C637        C  0.86030336  0.20597254  0.33335470    -0.06900
C638        C  0.89488206  0.19583421  0.33335801    -0.08400
C639        C  0.79404144  0.36024616  0.66666206    -0.06900
C640        C  0.80419490  0.39482064  0.66666514    -0.08400
O641        O  0.69706682  0.27171849  0.96011391    -0.68000
O642        O  0.80292640  0.22817186  0.96012920    -0.68100
O643        O  0.72822427  0.19701490  0.96012785    -0.68100
O644        O  0.77176986  0.30287313  0.96011530    -0.68200
O645        O  0.77179134  0.30290823  0.70654108    -0.68100
O646        O  0.72825492  0.19704628  0.70654526    -0.68100
O647        O  0.80295242  0.22820741  0.70654778    -0.68100
O648        O  0.69708921  0.27174494  0.70653851    -0.68100
Ni649      Ni  0.74999704  0.24994401  0.95725590     1.25400
Ni650      Ni  0.75002094  0.24997758  0.70940883     1.25400
C651        C  0.67980531  0.27875564  0.66665953     0.94100
C652        C  0.82024932  0.22118621  0.66667139     0.94100
C653        C  0.72120075  0.17972946  0.00000752     0.94100
C654        C  0.77878031  0.32016730  0.99999092     0.94300
C655        C  0.68797767  0.06205987  0.66665740     0.03900
C656        C  0.73515635  0.01481749  0.78989377     0.08700
C657        C  0.76488813  0.48509028  0.78988924     0.08600
C658        C  0.77956130  0.47040369  0.83332782    -0.11900
C659        C  0.76487072  0.48507998  0.87677070     0.08700
C660        C  0.73513962  0.01480775  0.87677633     0.08600
C661        C  0.72046420  0.02949263  0.83333722    -0.11900
H662        H  0.69754665  0.05240890  0.83334055     0.10700
H663        H  0.80248050  0.44748913  0.83332450     0.10700
C664        C  0.81217012  0.43786876  0.66667363     0.03900
C665        C  0.56211975  0.31207280  0.66666682     0.03900
C666        C  0.51486544  0.26484340  0.78989016     0.08700
C667        C  0.98513944  0.23511161  0.78989313     0.08600
C668        C  0.97045445  0.22042972  0.83333538    -0.11900
C669        C  0.98513121  0.23511276  0.87677527     0.08700
C670        C  0.51485775  0.26484396  0.87677162     0.08600
C671        C  0.52954126  0.27952692  0.83332971    -0.11900
H672        H  0.55245617  0.30244492  0.83332793     0.10700
H673        H  0.94754022  0.19751104  0.83333715     0.10700
C674        C  0.93790106  0.18787835  0.00001009     0.03900
O675        O  0.55293348  0.02174671  0.96012997    -0.68000
O676        O  0.94707560  0.47819896  0.96011179    -0.68100
O677        O  0.97823019  0.05290342  0.96012464    -0.68100
O678        O  0.52177942  0.44704581  0.96011710    -0.68200
O679        O  0.52184541  0.44706720  0.70655087    -0.68100
O680        O  0.97829063  0.05292253  0.70653190    -0.68100
O681        O  0.94714079  0.47821658  0.70656308    -0.68100
O682        O  0.55299650  0.02176983  0.70651963    -0.68100
Ni683      Ni  0.00000505  0.99997431  0.95725519     1.25400
Ni684      Ni  0.00006854  0.49999535  0.70940696     1.25400
C685        C  0.57021461  0.02875898  0.00001054     0.94100
C686        C  0.92977755  0.47117608  0.99998654     0.94100
C687        C  0.97120456  0.07019145  0.00000350     0.94100
C688        C  0.52878825  0.42975443  0.99999365     0.94300
C689        C  0.95599927  0.11024887  0.00000637    -0.06900
C690        C  0.94586565  0.14482893  0.00000825    -0.08400
C691        C  0.96931684  0.21929676  0.92082270    -0.06900
C692        C  0.95565158  0.20562953  0.95716101    -0.08400
C693        C  0.96933320  0.21929443  0.74584964    -0.06900
C694        C  0.95567486  0.20562780  0.70951332    -0.08400
C695        C  0.54399881  0.38969969  0.99999097    -0.06900
C696        C  0.55413393  0.35512042  0.99998923    -0.08400
C697        C  0.54433847  0.29432234  0.95714522    -0.06900
C698        C  0.53067048  0.28065707  0.92081356    -0.08800
C699        C  0.54435814  0.29432319  0.70951000    -0.06900
C700        C  0.53068445  0.28065695  0.74584415    -0.08400
C701        C  0.85514823  0.44581230  0.99997912    -0.06900
C702        C  0.88972511  0.45595725  0.99998036    -0.08400
C703        C  0.78068231  0.46926471  0.92081145    -0.06900
C704        C  0.79434946  0.45559726  0.95714178    -0.08400
C705        C  0.78071680  0.46928492  0.74584280    -0.06900
C706        C  0.79439922  0.45562162  0.70951070    -0.08400
C707        C  0.61027332  0.04395886  0.00001678    -0.06900
C708        C  0.64485502  0.05408561  0.00001827    -0.08400
C709        C  0.71932219  0.03062113  0.92082502    -0.06900
C710        C  0.70565664  0.04428850  0.95716439    -0.08400
C711        C  0.70570381  0.04430901  0.70951240    -0.06900
C712        C  0.71935429  0.03063887  0.74585065    -0.08400
C713        C  0.70599864  0.13967123  0.00001212    -0.06900
C714        C  0.69593397  0.10510970  0.66666550    -0.08400
C715        C  0.60516670  0.30409350  0.66665916    -0.06900
C716        C  0.63974600  0.29395649  0.66665698    -0.08400
C717        C  0.86030337  0.20597262  0.66667377    -0.06900
C718        C  0.89488205  0.19583422  0.66667155    -0.08400
C719        C  0.79399484  0.36022072  0.99998627    -0.06900
C720        C  0.80413678  0.39479803  0.99998382    -0.08400
O721        O  0.69710580  0.77173462  0.29344475    -0.68000
O722        O  0.80296909  0.72819716  0.29346601    -0.68100
O723        O  0.72827167  0.69703604  0.29346596    -0.68100
O724        O  0.77180802  0.80289802  0.29344484    -0.68200
O725        O  0.77175320  0.80288345  0.03987061    -0.68100
O726        O  0.72820751  0.69702527  0.03988311    -0.68100
O727        O  0.80290970  0.72818206  0.03988456    -0.68100
O728        O  0.69705028  0.77172890  0.03986920    -0.68100
Ni729      Ni  0.75003885  0.74996656  0.29058971     1.25400
Ni730      Ni  0.74997917  0.74995511  0.04274254     1.25400
C731        C  0.67976927  0.77874264  0.99998918     0.94100
C732        C  0.82020878  0.72116199  0.00000925     0.94100
C733        C  0.72125082  0.67975231  0.33334718     0.94100
C734        C  0.77881942  0.82019462  0.33331888     0.94300
C735        C  0.68790577  0.56204074  0.00001437     0.03900
C736        C  0.73513591  0.51480785  0.12323078     0.08700
C737        C  0.76486711  0.98508004  0.12321771     0.08600
C738        C  0.77956128  0.97040364  0.16665129    -0.11900
C739        C  0.76489183  0.98509021  0.21009912     0.08700
C740        C  0.73516013  0.51481746  0.21011329     0.08600
C741        C  0.72046426  0.52949276  0.16667918    -0.11900
H742        H  0.69754687  0.55240911  0.16669040     0.10700
H743        H  0.80248039  0.94748901  0.16664010     0.10700
C744        C  0.81209839  0.93784777  0.99998339     0.03900
C745        C  0.56208903  0.81206987  0.99998771     0.03900
C746        C  0.51485395  0.76484505  0.12321944     0.08700
C747        C  0.98512734  0.73511383  0.12322930     0.08600
C748        C  0.97045441  0.72042981  0.16667596    -0.11900
C749        C  0.98514316  0.73511058  0.21011147     0.08700
C750        C  0.51486923  0.76484236  0.21010092     0.08600
C751        C  0.52954128  0.77952690  0.16665460    -0.11900
H752        H  0.55245626  0.80244486  0.16664577     0.10700
H753        H  0.94754010  0.69751110  0.16668476     0.10700
C754        C  0.93793354  0.68788129  0.33335593     0.03900
O755        O  0.55301547  0.52177446  0.29349568    -0.68000
O756        O  0.94715971  0.97822127  0.29341564    -0.68100
O757        O  0.97830958  0.55292711  0.29347258    -0.68100
O758        O  0.52186434  0.94707184  0.29343881    -0.68200
O759        O  0.52176044  0.94704128  0.03987252    -0.68100
O760        O  0.97821113  0.55289876  0.03987992    -0.68100
O761        O  0.94705668  0.97819437  0.03986702    -0.68100
O762        O  0.55291446  0.52174215  0.03988535    -0.68100
Ni763      Ni  0.00008895  0.50000034  0.29059006     1.25400
Ni764      Ni  0.99998462  0.99996931  0.04274186     1.25400
C765        C  0.57028617  0.52877564  0.33338549     0.94100
C766        C  0.92985141  0.97118610  0.33328099     0.94100
C767        C  0.97126915  0.57020292  0.33335533     0.94100
C768        C  0.52885974  0.92976835  0.33331120     0.94300
C769        C  0.95605255  0.61025643  0.33336649    -0.06900
C770        C  0.94590690  0.64483318  0.33336671    -0.08400
C771        C  0.96933953  0.71929307  0.25416196    -0.06900
C772        C  0.95568036  0.70562660  0.29050297    -0.08400
C773        C  0.96931028  0.71929804  0.07918893    -0.06900
C774        C  0.95564587  0.70563060  0.04285531    -0.08400
C775        C  0.54405977  0.88970975  0.33329934    -0.06900
C776        C  0.55417981  0.85512613  0.33329806    -0.08400
C777        C  0.54436397  0.79432187  0.29046931    -0.06900
C778        C  0.53069105  0.78065551  0.25413989    -0.08800
C779        C  0.54433271  0.79432370  0.04283418    -0.06900
C780        C  0.53066395  0.78065844  0.07917047    -0.08400
C781        C  0.85522224  0.94582196  0.33325899    -0.06900
C782        C  0.88979973  0.95596510  0.33325578    -0.08400
C783        C  0.78072309  0.96928406  0.25413579    -0.06900
C784        C  0.79440472  0.95562082  0.29046139    -0.08400
C785        C  0.78067602  0.96926541  0.07916724    -0.06900
C786        C  0.79434399  0.95559799  0.04283038    -0.08400
C787        C  0.61034557  0.54397420  0.33341012    -0.06900
C788        C  0.64492766  0.55409993  0.33340564    -0.08400
C789        C  0.71936106  0.53063838  0.25416618    -0.06900
C790        C  0.70570968  0.54430871  0.29051079    -0.08400
C791        C  0.70565090  0.54428893  0.04285894    -0.06900
C792        C  0.71931577  0.53062181  0.07919183    -0.08400
C793        C  0.70605712  0.63969193  0.33335548    -0.06900
C794        C  0.69586844  0.60509044  0.00001425    -0.08400
C795        C  0.60513774  0.80410044  0.99998339    -0.06900
C796        C  0.63971519  0.79395721  0.99998416    -0.08400
C797        C  0.86026785  0.70596132  0.00001421    -0.06900
C798        C  0.89484978  0.69583376  0.00001469    -0.08400
C799        C  0.79404152  0.86024617  0.33331047    -0.06900
C800        C  0.80419495  0.89482065  0.33330256    -0.08400
O801        O  0.69710457  0.77173985  0.62678324    -0.68000
O802        O  0.80296769  0.72820227  0.62679242    -0.68100
O803        O  0.72827046  0.69704131  0.62678983    -0.68100
O804        O  0.77180694  0.80290321  0.62678596    -0.68200
O805        O  0.77179022  0.80291348  0.37319998    -0.68100
O806        O  0.72825383  0.69705145  0.37322141    -0.68100
O807        O  0.80295112  0.72821252  0.37322141    -0.68100
O808        O  0.69708790  0.77175004  0.37320005    -0.68100
Ni809      Ni  0.75003752  0.74997211  0.62392221     1.25400
Ni810      Ni  0.75001965  0.74998309  0.37607642     1.25400
C811        C  0.67980525  0.77875563  0.33331898     0.94100
C812        C  0.82024934  0.72118622  0.33334715     0.94100
C813        C  0.72125091  0.67975229  0.66666806     0.94100
C814        C  0.77881941  0.82019462  0.66666296     0.94300
C815        C  0.68797769  0.56205987  0.33337121     0.03900
C816        C  0.73526783  0.51484964  0.45656306     0.08700
C817        C  0.76500129  0.98512428  0.45655270     0.08600
C818        C  0.77968978  0.97044647  0.49998954    -0.11900
C819        C  0.76500494  0.98512415  0.54343565     0.08700
C820        C  0.73527161  0.51484965  0.54344399     0.08600
C821        C  0.72058862  0.52953132  0.50000818    -0.11900
H822        H  0.69766648  0.55244305  0.50001543     0.10700
H823        H  0.80260713  0.94753013  0.49998231     0.10700
C824        C  0.81217014  0.93786874  0.33329314     0.03900
C825        C  0.56211968  0.81207281  0.33330859     0.03900
C826        C  0.51486307  0.76488767  0.45655431     0.08700
C827        C  0.98513893  0.73515405  0.45656178     0.08600
C828        C  0.97046006  0.72047145  0.50000565    -0.11900
C829        C  0.98514270  0.73515290  0.54344282     0.08700
C830        C  0.51486690  0.76488653  0.54343678     0.08600
C831        C  0.52954249  0.77957313  0.49999218    -0.11900
H832        H  0.55245729  0.80249122  0.49998694     0.10700
H833        H  0.94754892  0.69754964  0.50001087     0.10700
C834        C  0.93793353  0.68788129  0.66666438     0.03900
O835        O  0.55299430  0.52175233  0.62676429    -0.68000
O836        O  0.94713827  0.97819928  0.62680783    -0.68100
O837        O  0.97828745  0.55290527  0.62677668    -0.68100
O838        O  0.52184224  0.94704965  0.62679543    -0.68200
O839        O  0.52182329  0.94704503  0.37319424    -0.68100
O840        O  0.97826835  0.55290068  0.37322779    -0.68100
O841        O  0.94711935  0.97819459  0.37317089    -0.68100
O842        O  0.55297539  0.52174768  0.37325102    -0.68100
Ni843      Ni  0.00006546  0.49997657  0.62392029     1.25400
Ni844      Ni  0.00004509  0.99997160  0.37607674     1.25400
C845        C  0.57028609  0.52877558  0.66663561     0.94100
C846        C  0.92985142  0.97118608  0.66669199     0.94100
C847        C  0.97126923  0.57020294  0.66665153     0.94100
C848        C  0.52885976  0.92976831  0.66667606     0.94300
C849        C  0.95605256  0.61025643  0.66664596    -0.06900
C850        C  0.94590687  0.64483318  0.66664995    -0.08400
C851        C  0.96934006  0.71932680  0.58748965    -0.06900
C852        C  0.95568087  0.70564603  0.62382305    -0.08400
C853        C  0.96933376  0.71932817  0.41252196    -0.06900
C854        C  0.95567543  0.70564719  0.37619326    -0.08400
C855        C  0.54405977  0.88970968  0.66668231    -0.06900
C856        C  0.55417995  0.85512610  0.66668034    -0.08400
C857        C  0.54436324  0.79434156  0.62381672    -0.06900
C858        C  0.53068937  0.78069094  0.58747954    -0.08800
C859        C  0.54435744  0.79434289  0.37616263    -0.06900
C860        C  0.53068282  0.78069240  0.41250453    -0.08400
C861        C  0.85522220  0.94582202  0.66669926    -0.06900
C862        C  0.88979969  0.95596515  0.66670492    -0.08400
C863        C  0.78080699  0.96930011  0.58747797    -0.06900
C864        C  0.79445041  0.95562608  0.62381821    -0.08400
C865        C  0.78080071  0.96930091  0.41250066    -0.06900
C866        C  0.79444500  0.95562680  0.37615396    -0.08400
C867        C  0.61034548  0.54397418  0.66662356    -0.06900
C868        C  0.64492758  0.55409987  0.66663098    -0.08400
C869        C  0.71944350  0.53065247  0.58749133    -0.06900
C870        C  0.70575516  0.54431284  0.62382144    -0.08400
C871        C  0.70574947  0.54431323  0.37620176    -0.06900
C872        C  0.71943690  0.53065300  0.41252545    -0.08400
C873        C  0.70605724  0.63969190  0.66666875    -0.06900
C874        C  0.69593387  0.60510970  0.33336287    -0.08400
C875        C  0.60516663  0.80409352  0.33330760    -0.06900
C876        C  0.63974591  0.79395649  0.33331142    -0.08400
C877        C  0.86030340  0.70597265  0.33335475    -0.06900
C878        C  0.89488207  0.69583424  0.33335807    -0.08400
C879        C  0.79404141  0.86024618  0.66666206    -0.06900
C880        C  0.80419486  0.89482065  0.66666515    -0.08400
O881        O  0.69706687  0.77171856  0.96011391    -0.68000
O882        O  0.80292630  0.72817178  0.96012920    -0.68100
O883        O  0.72822429  0.69701497  0.96012785    -0.68100
O884        O  0.77176978  0.80287321  0.96011530    -0.68200
O885        O  0.77179132  0.80290829  0.70654108    -0.68100
O886        O  0.72825507  0.69704621  0.70654526    -0.68100
O887        O  0.80295249  0.72820754  0.70654779    -0.68100
O888        O  0.69708914  0.77174484  0.70653851    -0.68100
Ni889      Ni  0.74999704  0.74994406  0.95725590     1.25400
Ni890      Ni  0.75002095  0.74997759  0.70940883     1.25400
C891        C  0.67980527  0.77875568  0.66665954     0.94100
C892        C  0.82024932  0.72118624  0.66667138     0.94100
C893        C  0.72120066  0.67972956  0.00000751     0.94100
C894        C  0.77878030  0.82016736  0.99999091     0.94300
C895        C  0.68797760  0.56205986  0.66665742     0.03900
C896        C  0.73515631  0.51481739  0.78989375     0.08700
C897        C  0.76488813  0.98509034  0.78988920     0.08600
C898        C  0.77956117  0.97040363  0.83332776    -0.11900
C899        C  0.76487082  0.98507999  0.87677068     0.08700
C900        C  0.73513946  0.51480767  0.87677631     0.08600
C901        C  0.72046410  0.52949261  0.83333718    -0.11900
H902        H  0.69754671  0.55240889  0.83334046     0.10700
H903        H  0.80248026  0.94748885  0.83332439     0.10700
C904        C  0.81217010  0.93786875  0.66667363     0.03900
C905        C  0.56211973  0.81207278  0.66666682     0.03900
C906        C  0.51486532  0.76484348  0.78989014     0.08700
C907        C  0.98513934  0.73511170  0.78989313     0.08600
C908        C  0.97045433  0.72042978  0.83333536    -0.11900
C909        C  0.98513118  0.73511265  0.87677527     0.08700
C910        C  0.51485786  0.76484382  0.87677163     0.08600
C911        C  0.52954128  0.77952678  0.83332971    -0.11900
H912        H  0.55245630  0.80244479  0.83332796     0.10700
H913        H  0.94754005  0.69751114  0.83333710     0.10700
C914        C  0.93790099  0.68787831  0.00001010     0.03900
O915        O  0.55293345  0.52174672  0.96012996    -0.68000
O916        O  0.94707568  0.97819900  0.96011179    -0.68100
O917        O  0.97823023  0.55290340  0.96012464    -0.68100
O918        O  0.52177945  0.94704589  0.96011711    -0.68200
O919        O  0.52184546  0.94706718  0.70655087    -0.68100
O920        O  0.97829061  0.55292254  0.70653191    -0.68100
O921        O  0.94714079  0.97821661  0.70656307    -0.68100
O922        O  0.55299641  0.52176972  0.70651963    -0.68100
Ni923      Ni  0.00000500  0.49997427  0.95725518     1.25400
Ni924      Ni  0.00006852  0.99999538  0.70940696     1.25400
C925        C  0.57021458  0.52875901  0.00001053     0.94100
C926        C  0.92977760  0.97117608  0.99998652     0.94100
C927        C  0.97120456  0.57019143  0.00000349     0.94100
C928        C  0.52878825  0.92975443  0.99999363     0.94300
C929        C  0.95599929  0.61024884  0.00000634    -0.06900
C930        C  0.94586563  0.64482889  0.00000828    -0.08400
C931        C  0.96931667  0.71929676  0.92082268    -0.06900
C932        C  0.95565141  0.70562947  0.95716096    -0.08400
C933        C  0.96933326  0.71929438  0.74584963    -0.06900
C934        C  0.95567493  0.70562777  0.70951330    -0.08400
C935        C  0.54399879  0.88969971  0.99999090    -0.06900
C936        C  0.55413383  0.85512043  0.99998921    -0.08400
C937        C  0.54433851  0.79432236  0.95714517    -0.06900
C938        C  0.53067058  0.78065694  0.92081357    -0.08800
C939        C  0.54435815  0.79432329  0.70951005    -0.06900
C940        C  0.53068431  0.78065709  0.74584413    -0.08400
C941        C  0.85514829  0.94581234  0.99997911    -0.06900
C942        C  0.88972517  0.95595730  0.99998033    -0.08400
C943        C  0.78068236  0.96926461  0.92081141    -0.06900
C944        C  0.79434952  0.95559719  0.95714174    -0.08400
C945        C  0.78071672  0.96928495  0.74584275    -0.06900
C946        C  0.79439921  0.95562155  0.70951074    -0.08400
C947        C  0.61027330  0.54395879  0.00001677    -0.06900
C948        C  0.64485500  0.55408554  0.00001830    -0.08400
C949        C  0.71932216  0.53062120  0.92082499    -0.06900
C950        C  0.70565656  0.54428856  0.95716434    -0.08400
C951        C  0.70570382  0.54430907  0.70951242    -0.06900
C952        C  0.71935433  0.53063880  0.74585058    -0.08400
C953        C  0.70599866  0.63967125  0.00001211    -0.06900
C954        C  0.69593380  0.60510971  0.66666547    -0.08400
C955        C  0.60516666  0.80409343  0.66665913    -0.06900
C956        C  0.63974596  0.79395652  0.66665700    -0.08400
C957        C  0.86030334  0.70597252  0.66667372    -0.06900
C958        C  0.89488203  0.69583414  0.66667154    -0.08400
C959        C  0.79399472  0.86022080  0.99998626    -0.06900
C960        C  0.80413669  0.89479808  0.99998386    -0.08400
loop_ 
_geom_bond_atom_site_label_1 
_geom_bond_atom_site_label_2 
_geom_bond_distance 
_geom_bond_site_symmetry_2 
_ccdc_geom_bond_type 
O1           Ni9   1.918       .  S
O1           C91   1.280       .  A
O2           Ni9   1.918       .  S
O2           C92   1.280       .  A
O3           Ni9   1.918       .  S
O3           C13   1.280       .  A
O4           Ni9   1.918       .  S
O4           C14   1.280       .  A
O5          Ni10   1.918       .  S
O5          C174   1.280   1_554  A
O6          Ni10   1.918       .  S
O6          C173   1.280       .  A
O7          Ni10   1.918       .  S
O7           C12   1.280       .  A
O8          Ni10   1.918       .  S
O8           C11   1.280   1_554  A
Ni9         Ni90   2.394       .  S
Ni10       Ni169   2.394   1_554  S
C11         O161   1.280       .  A
C11          C76   1.434       .  S
C12         O162   1.280   1_554  A
C12          C77   1.434       .  S
C13          O86   1.280       .  A
C13          C73   1.434       .  S
C14          O85   1.280       .  A
C14          C79   1.434       .  S
C15          C71   1.465       .  S
C15          C74   1.466       .  S
C15         C228   1.466       .  S
C15         C230   1.465   1_554  S
C16          C72   1.443       .  S
C16          C21   1.401       .  A
C16         C257   1.407   1_545  A
C17          C65   1.443       .  S
C17          C18   1.401       .  A
C17         C256   1.407       .  A
C18          C19   1.401       .  A
C18          H23   1.085       .  S
C19          C63   1.443       .  S
C19         C260   1.407       .  A
C20          C69   1.443       .  S
C20          C21   1.401       .  A
C20         C259   1.407   1_545  A
C21          H22   1.085       .  S
C24          C66   1.465   1_556  S
C24         C221   1.466       .  S
C24         C224   1.465       .  S
C24         C240   1.466       .  S
C25          C59   1.465   1_556  S
C25          C75   1.466       .  S
C25         C216   1.466       .  S
C25         C217   1.465       .  S
C26          C60   1.443       .  S
C26          C31   1.401       .  A
C26         C507   1.407   1_455  A
C27          C53   1.443       .  S
C27          C28   1.401       .  A
C27         C506   1.407       .  A
C28          C29   1.401       .  A
C28          H33   1.085       .  S
C29          C51   1.443       .  S
C29         C510   1.407       .  A
C30          C58   1.443       .  S
C30          C31   1.401       .  A
C30         C509   1.407   1_455  A
C31          H32   1.085       .  S
C34          C50   1.466       .  S
C34          C52   1.465       .  S
C34         C134   1.465       .  S
C34         C158   1.466       .  S
O35        Ni523   1.918       .  S
O35          C45   1.280       .  A
O36        Ni283   1.918       .  S
O36          C46   1.280       .  A
O37         Ni43   1.918       .  S
O37          C47   1.280       .  A
O38        Ni763   1.918       .  S
O38          C48   1.280       .  A
O39        Ni524   1.918   1_455  S
O39         C208   1.280   1_554  A
O40        Ni284   1.918   1_545  S
O40         C207   1.280       .  A
O41         Ni44   1.918       .  S
O41         C206   1.280   1_554  A
O42        Ni764   1.918   1_445  S
O42         C205   1.280       .  A
Ni43        O515   1.918       .  S
Ni43        O276   1.918   1_545  S
Ni43        O758   1.918   1_545  S
Ni43       Ni364   2.394   1_545  S
Ni44        O519   1.918       .  S
Ni44        O280   1.918       .  S
Ni44        O762   1.918       .  S
Ni44       Ni443   2.394   1_554  S
C45         O122   1.280       .  A
C45          C67   1.434       .  S
C46         O121   1.280       .  A
C46          C62   1.434       .  S
C47         O120   1.280       .  A
C47          C49   1.434       .  S
C48         O119   1.280       .  A
C48          C55   1.434       .  S
C49          C50   1.206       .  T
C51          C52   1.206       .  T
C53          C54   1.206       .  T
C54         C194   1.465       .  S
C55          C56   1.206       .  T
C56         C105   1.466       .  S
C57         C105   1.465       .  S
C57          C58   1.206       .  T
C59          C60   1.206       .  T
C61         C104   1.466       .  S
C61          C62   1.206       .  T
C63          C64   1.206       .  T
C64         C104   1.465       .  S
C65          C66   1.206       .  T
C67          C68   1.206       .  T
C68          C95   1.466       .  S
C69          C70   1.206       .  T
C70          C95   1.465       .  S
C71          C72   1.206       .  T
C73         C154   1.206       .  T
C74         C233   1.206       .  T
C75          C76   1.206       .  T
C77          C78   1.206       .  T
C78         C194   1.466       .  S
C79          C80   1.206       .  T
C80         C104   1.466       .  S
O81         Ni89   1.918       .  S
O81         C171   1.280       .  A
O82         Ni89   1.918       .  S
O82         C172   1.280       .  A
O83         Ni89   1.918       .  S
O83          C93   1.280       .  A
O84         Ni89   1.918       .  S
O84          C94   1.280       .  A
O85         Ni90   1.918       .  S
O86         Ni90   1.918       .  S
O87         Ni90   1.918       .  S
O87          C92   1.280       .  A
O88         Ni90   1.918       .  S
O88          C91   1.280       .  A
Ni89       Ni170   2.394       .  S
C91         C156   1.434       .  S
C92         C157   1.434       .  S
C93         O166   1.280       .  A
C93         C153   1.434       .  S
C94         O165   1.280       .  A
C94         C159   1.434       .  S
C95         C151   1.465       .  S
C95         C154   1.466       .  S
C96         C152   1.443       .  S
C96         C337   1.407   1_545  A
C96         C101   1.401       .  A
C97         C145   1.443       .  S
C97         C336   1.407       .  A
C97          C98   1.401       .  A
C98          C99   1.401       .  A
C98         H103   1.085       .  S
C99         C143   1.443       .  S
C99         C340   1.407       .  A
C100        C149   1.443       .  S
C100        C339   1.407   1_545  A
C100        C101   1.401       .  A
C101        H102   1.085       .  S
C104        C146   1.465       .  S
C105        C139   1.465       .  S
C105        C155   1.466       .  S
C106        C140   1.443       .  S
C106        C587   1.407   1_455  A
C106        C111   1.401       .  A
C107        C133   1.443       .  S
C107        C586   1.407       .  A
C107        C108   1.401       .  A
C108        C109   1.401       .  A
C108        H113   1.085       .  S
C109        C131   1.443       .  S
C109        C590   1.407       .  A
C110        C138   1.443       .  S
C110        C589   1.407   1_455  A
C110        C111   1.401       .  A
C111        H112   1.085       .  S
C114        C130   1.466       .  S
C114        C132   1.465       .  S
C114        C214   1.465       .  S
C114        C238   1.466       .  S
O115       Ni603   1.918   1_545  S
O115        C125   1.280       .  A
O116       Ni363   1.918       .  S
O116        C126   1.280       .  A
O117       Ni123   1.918   1_545  S
O117        C127   1.280       .  A
O118       Ni843   1.918       .  S
O118        C128   1.280       .  A
O119       Ni604   1.918       .  S
O120       Ni364   1.918   1_545  S
O121       Ni124   1.918       .  S
O122       Ni844   1.918   1_545  S
Ni123       O595   1.918   1_565  S
Ni123       O356   1.918       .  S
Ni123       O838   1.918       .  S
Ni123      Ni444   2.394       .  S
Ni124       O599   1.918       .  S
Ni124       O360   1.918       .  S
Ni124       O842   1.918       .  S
Ni124      Ni283   2.394       .  S
C125        O202   1.280       .  A
C125        C147   1.434       .  S
C126        O201   1.280       .  A
C126        C142   1.434       .  S
C127        O200   1.280       .  A
C127        C129   1.434       .  S
C128        O199   1.280       .  A
C128        C135   1.434       .  S
C129        C130   1.206       .  T
C131        C132   1.206       .  T
C133        C134   1.206       .  T
C135        C136   1.206       .  T
C136        C185   1.466       .  S
C137        C185   1.465       .  S
C137        C138   1.206       .  T
C139        C140   1.206       .  T
C141        C184   1.466       .  S
C141        C142   1.206       .  T
C143        C144   1.206       .  T
C144        C184   1.465       .  S
C145        C146   1.206       .  T
C147        C148   1.206       .  T
C148        C175   1.466       .  S
C149        C150   1.206       .  T
C150        C175   1.465       .  S
C151        C152   1.206       .  T
C153        C234   1.206       .  T
C155        C156   1.206       .  T
C157        C158   1.206       .  T
C159        C160   1.206       .  T
C160        C184   1.466       .  S
O161       Ni169   1.918       .  S
O162       Ni169   1.918       .  S
O163       Ni169   1.918       .  S
O163        C173   1.280   1_556  A
O164       Ni169   1.918       .  S
O164        C174   1.280       .  A
O165       Ni170   1.918       .  S
O166       Ni170   1.918       .  S
O167       Ni170   1.918       .  S
O167        C172   1.280       .  A
O168       Ni170   1.918       .  S
O168        C171   1.280       .  A
C171        C236   1.434       .  S
C172        C237   1.434       .  S
C173        C233   1.434       .  S
C174        C239   1.434       .  S
C175        C231   1.465       .  S
C175        C234   1.466       .  S
C176        C232   1.443       .  S
C176        C417   1.407   1_545  A
C176        C181   1.401       .  A
C177        C225   1.443       .  S
C177        C416   1.407       .  A
C177        C178   1.401       .  A
C178        C179   1.401       .  A
C178        H183   1.085       .  S
C179        C223   1.443       .  S
C179        C420   1.407       .  A
C180        C229   1.443       .  S
C180        C419   1.407   1_545  A
C180        C181   1.401       .  A
C181        H182   1.085       .  S
C184        C226   1.465       .  S
C185        C219   1.465       .  S
C185        C235   1.466       .  S
C186        C220   1.443       .  S
C186        C667   1.407   1_455  A
C186        C191   1.401       .  A
C187        C213   1.443       .  S
C187        C666   1.407       .  A
C187        C188   1.401       .  A
C188        C189   1.401       .  A
C188        H193   1.085       .  S
C189        C211   1.443       .  S
C189        C670   1.407       .  A
C190        C218   1.443       .  S
C190        C669   1.407   1_455  A
C190        C191   1.401       .  A
C191        H192   1.085       .  S
C194        C210   1.466       .  S
C194        C212   1.465   1_554  S
O195       Ni683   1.918   1_545  S
O195        C205   1.280   1_556  A
O196       Ni443   1.918       .  S
O196        C206   1.280       .  A
O197       Ni203   1.918   1_545  S
O197        C207   1.280   1_556  A
O198       Ni923   1.918       .  S
O198        C208   1.280       .  A
O199       Ni684   1.918       .  S
O200       Ni444   1.918   1_545  S
O201       Ni204   1.918       .  S
O202       Ni924   1.918   1_545  S
Ni203       O675   1.918   1_565  S
Ni203       O436   1.918       .  S
Ni203       O918   1.918       .  S
Ni203      Ni284   2.394   1_556  S
Ni204       O679   1.918       .  S
Ni204       O440   1.918       .  S
Ni204       O922   1.918       .  S
Ni204      Ni363   2.394       .  S
C205        C227   1.434       .  S
C206        C222   1.434       .  S
C207        C209   1.434       .  S
C208        C215   1.434       .  S
C209        C210   1.206       .  T
C211        C212   1.206       .  T
C213        C214   1.206       .  T
C215        C216   1.206       .  T
C217        C218   1.206       .  T
C219        C220   1.206       .  T
C221        C222   1.206       .  T
C223        C224   1.206       .  T
C225        C226   1.206       .  T
C227        C228   1.206       .  T
C229        C230   1.206       .  T
C231        C232   1.206       .  T
C235        C236   1.206       .  T
C237        C238   1.206       .  T
C239        C240   1.206       .  T
O241       Ni249   1.918       .  S
O241        C331   1.280       .  A
O242       Ni249   1.918       .  S
O242        C332   1.280       .  A
O243       Ni249   1.918       .  S
O243        C253   1.280       .  A
O244       Ni249   1.918       .  S
O244        C254   1.280       .  A
O245       Ni250   1.918       .  S
O245        C414   1.280   1_554  A
O246       Ni250   1.918       .  S
O246        C413   1.280       .  A
O247       Ni250   1.918       .  S
O247        C252   1.280       .  A
O248       Ni250   1.918       .  S
O248        C251   1.280   1_554  A
Ni249      Ni330   2.394       .  S
Ni250      Ni409   2.394   1_554  S
C251        O401   1.280       .  A
C251        C316   1.434       .  S
C252        O402   1.280   1_554  A
C252        C317   1.434       .  S
C253        O326   1.280       .  A
C253        C313   1.434       .  S
C254        O325   1.280       .  A
C254        C319   1.434       .  S
C255        C468   1.466       .  S
C255        C470   1.465   1_554  S
C255        C311   1.465       .  S
C255        C314   1.466       .  S
C256        C312   1.443       .  S
C256        C261   1.401       .  A
C257        C305   1.443       .  S
C257        C258   1.401       .  A
C258        C259   1.401       .  A
C258        H263   1.085       .  S
C259        C303   1.443       .  S
C260        C309   1.443       .  S
C260        C261   1.401       .  A
C261        H262   1.085       .  S
C264        C461   1.466       .  S
C264        C464   1.465       .  S
C264        C306   1.465   1_556  S
C264        C480   1.466       .  S
C265        C456   1.466       .  S
C265        C457   1.465       .  S
C265        C299   1.465   1_556  S
C265        C315   1.466       .  S
C266        C300   1.443       .  S
C266        C747   1.407   1_455  A
C266        C271   1.401       .  A
C267        C293   1.443       .  S
C267        C746   1.407       .  A
C267        C268   1.401       .  A
C268        C269   1.401       .  A
C268        H273   1.085       .  S
C269        C291   1.443       .  S
C269        C750   1.407       .  A
C270        C298   1.443       .  S
C270        C749   1.407   1_455  A
C270        C271   1.401       .  A
C271        H272   1.085       .  S
C274        C290   1.466       .  S
C274        C292   1.465       .  S
C274        C374   1.465       .  S
C274        C398   1.466       .  S
O275       Ni763   1.918       .  S
O275        C285   1.280       .  A
O276        C286   1.280       .  A
O277       Ni283   1.918       .  S
O277        C287   1.280       .  A
O278       Ni523   1.918   1_565  S
O278        C288   1.280       .  A
O279       Ni764   1.918   1_455  S
O279        C448   1.280   1_554  A
O280        C447   1.280       .  A
O281       Ni284   1.918       .  S
O281        C446   1.280   1_554  A
O282       Ni524   1.918   1_455  S
O282        C445   1.280       .  A
Ni283       O755   1.918       .  S
Ni283       O518   1.918       .  S
Ni284       O759   1.918       .  S
Ni284       O522   1.918   1_565  S
C285        O362   1.280       .  A
C285        C307   1.434       .  S
C286        O361   1.280       .  A
C286        C302   1.434       .  S
C287        O360   1.280       .  A
C287        C289   1.434       .  S
C288        O359   1.280       .  A
C288        C295   1.434       .  S
C289        C290   1.206       .  T
C291        C292   1.206       .  T
C293        C294   1.206       .  T
C294        C434   1.465       .  S
C295        C296   1.206       .  T
C296        C345   1.466       .  S
C297        C345   1.465       .  S
C297        C298   1.206       .  T
C299        C300   1.206       .  T
C301        C344   1.466       .  S
C301        C302   1.206       .  T
C303        C304   1.206       .  T
C304        C344   1.465       .  S
C305        C306   1.206       .  T
C307        C308   1.206       .  T
C308        C335   1.466       .  S
C309        C310   1.206       .  T
C310        C335   1.465       .  S
C311        C312   1.206       .  T
C313        C394   1.206       .  T
C314        C473   1.206       .  T
C315        C316   1.206       .  T
C317        C318   1.206       .  T
C318        C434   1.466       .  S
C319        C320   1.206       .  T
C320        C344   1.466       .  S
O321       Ni329   1.918       .  S
O321        C411   1.280       .  A
O322       Ni329   1.918       .  S
O322        C412   1.280       .  A
O323       Ni329   1.918       .  S
O323        C333   1.280       .  A
O324       Ni329   1.918       .  S
O324        C334   1.280       .  A
O325       Ni330   1.918       .  S
O326       Ni330   1.918       .  S
O327       Ni330   1.918       .  S
O327        C332   1.280       .  A
O328       Ni330   1.918       .  S
O328        C331   1.280       .  A
Ni329      Ni410   2.394       .  S
C331        C396   1.434       .  S
C332        C397   1.434       .  S
C333        O406   1.280       .  A
C333        C393   1.434       .  S
C334        O405   1.280       .  A
C334        C399   1.434       .  S
C335        C391   1.465       .  S
C335        C394   1.466       .  S
C336        C392   1.443       .  S
C336        C341   1.401       .  A
C337        C385   1.443       .  S
C337        C338   1.401       .  A
C338        C339   1.401       .  A
C338        H343   1.085       .  S
C339        C383   1.443       .  S
C340        C389   1.443       .  S
C340        C341   1.401       .  A
C341        H342   1.085       .  S
C344        C386   1.465       .  S
C345        C379   1.465       .  S
C345        C395   1.466       .  S
C346        C380   1.443       .  S
C346        C827   1.407   1_455  A
C346        C351   1.401       .  A
C347        C373   1.443       .  S
C347        C826   1.407       .  A
C347        C348   1.401       .  A
C348        C349   1.401       .  A
C348        H353   1.085       .  S
C349        C371   1.443       .  S
C349        C830   1.407       .  A
C350        C378   1.443       .  S
C350        C829   1.407   1_455  A
C350        C351   1.401       .  A
C351        H352   1.085       .  S
C354        C370   1.466       .  S
C354        C372   1.465       .  S
C354        C454   1.465       .  S
C354        C478   1.466       .  S
O355       Ni843   1.918       .  S
O355        C365   1.280       .  A
O356        C366   1.280       .  A
O357       Ni363   1.918       .  S
O357        C367   1.280       .  A
O358       Ni603   1.918       .  S
O358        C368   1.280       .  A
O359       Ni844   1.918       .  S
O361       Ni364   1.918       .  S
O362       Ni604   1.918       .  S
Ni363       O835   1.918       .  S
Ni363       O598   1.918       .  S
Ni364       O839   1.918       .  S
Ni364       O602   1.918   1_565  S
C365        O442   1.280       .  A
C365        C387   1.434       .  S
C366        O441   1.280       .  A
C366        C382   1.434       .  S
C367        O440   1.280       .  A
C367        C369   1.434       .  S
C368        O439   1.280       .  A
C368        C375   1.434       .  S
C369        C370   1.206       .  T
C371        C372   1.206       .  T
C373        C374   1.206       .  T
C375        C376   1.206       .  T
C376        C425   1.466       .  S
C377        C425   1.465       .  S
C377        C378   1.206       .  T
C379        C380   1.206       .  T
C381        C424   1.466       .  S
C381        C382   1.206       .  T
C383        C384   1.206       .  T
C384        C424   1.465       .  S
C385        C386   1.206       .  T
C387        C388   1.206       .  T
C388        C415   1.466       .  S
C389        C390   1.206       .  T
C390        C415   1.465       .  S
C391        C392   1.206       .  T
C393        C474   1.206       .  T
C395        C396   1.206       .  T
C397        C398   1.206       .  T
C399        C400   1.206       .  T
C400        C424   1.466       .  S
O401       Ni409   1.918       .  S
O402       Ni409   1.918       .  S
O403       Ni409   1.918       .  S
O403        C413   1.280   1_556  A
O404       Ni409   1.918       .  S
O404        C414   1.280       .  A
O405       Ni410   1.918       .  S
O406       Ni410   1.918       .  S
O407       Ni410   1.918       .  S
O407        C412   1.280       .  A
O408       Ni410   1.918       .  S
O408        C411   1.280       .  A
C411        C476   1.434       .  S
C412        C477   1.434       .  S
C413        C473   1.434       .  S
C414        C479   1.434       .  S
C415        C471   1.465       .  S
C415        C474   1.466       .  S
C416        C472   1.443       .  S
C416        C421   1.401       .  A
C417        C465   1.443       .  S
C417        C418   1.401       .  A
C418        C419   1.401       .  A
C418        H423   1.085       .  S
C419        C463   1.443       .  S
C420        C469   1.443       .  S
C420        C421   1.401       .  A
C421        H422   1.085       .  S
C424        C466   1.465       .  S
C425        C459   1.465       .  S
C425        C475   1.466       .  S
C426        C460   1.443       .  S
C426        C907   1.407   1_455  A
C426        C431   1.401       .  A
C427        C453   1.443       .  S
C427        C906   1.407       .  A
C427        C428   1.401       .  A
C428        C429   1.401       .  A
C428        H433   1.085       .  S
C429        C451   1.443       .  S
C429        C910   1.407       .  A
C430        C458   1.443       .  S
C430        C909   1.407   1_455  A
C430        C431   1.401       .  A
C431        H432   1.085       .  S
C434        C450   1.466       .  S
C434        C452   1.465   1_554  S
O435       Ni923   1.918       .  S
O435        C445   1.280   1_556  A
O436        C446   1.280       .  A
O437       Ni443   1.918       .  S
O437        C447   1.280   1_556  A
O438       Ni683   1.918       .  S
O438        C448   1.280       .  A
O439       Ni924   1.918       .  S
O441       Ni444   1.918       .  S
O442       Ni684   1.918       .  S
Ni443       O915   1.918       .  S
Ni443       O678   1.918       .  S
Ni444       O919   1.918       .  S
Ni444       O682   1.918   1_565  S
C445        C467   1.434       .  S
C446        C462   1.434       .  S
C447        C449   1.434       .  S
C448        C455   1.434       .  S
C449        C450   1.206       .  T
C451        C452   1.206       .  T
C453        C454   1.206       .  T
C455        C456   1.206       .  T
C457        C458   1.206       .  T
C459        C460   1.206       .  T
C461        C462   1.206       .  T
C463        C464   1.206       .  T
C465        C466   1.206       .  T
C467        C468   1.206       .  T
C469        C470   1.206       .  T
C471        C472   1.206       .  T
C475        C476   1.206       .  T
C477        C478   1.206       .  T
C479        C480   1.206       .  T
O481       Ni489   1.918       .  S
O481        C571   1.280       .  A
O482       Ni489   1.918       .  S
O482        C572   1.280       .  A
O483       Ni489   1.918       .  S
O483        C493   1.280       .  A
O484       Ni489   1.918       .  S
O484        C494   1.280       .  A
O485       Ni490   1.918       .  S
O485        C654   1.280   1_554  A
O486       Ni490   1.918       .  S
O486        C653   1.280       .  A
O487       Ni490   1.918       .  S
O487        C492   1.280       .  A
O488       Ni490   1.918       .  S
O488        C491   1.280   1_554  A
Ni489      Ni570   2.394       .  S
Ni490      Ni649   2.394   1_554  S
C491        O641   1.280       .  A
C491        C556   1.434       .  S
C492        O642   1.280   1_554  A
C492        C557   1.434       .  S
C493        O566   1.280       .  A
C493        C553   1.434       .  S
C494        O565   1.280       .  A
C494        C559   1.434       .  S
C495        C708   1.466       .  S
C495        C710   1.465   1_554  S
C495        C551   1.465       .  S
C495        C554   1.466       .  S
C496        C552   1.443       .  S
C496        C737   1.407   1_545  A
C496        C501   1.401       .  A
C497        C545   1.443       .  S
C497        C736   1.407       .  A
C497        C498   1.401       .  A
C498        C499   1.401       .  A
C498        H503   1.085       .  S
C499        C543   1.443       .  S
C499        C740   1.407       .  A
C500        C549   1.443       .  S
C500        C739   1.407   1_545  A
C500        C501   1.401       .  A
C501        H502   1.085       .  S
C504        C701   1.466       .  S
C504        C704   1.465       .  S
C504        C546   1.465   1_556  S
C504        C720   1.466       .  S
C505        C696   1.466       .  S
C505        C697   1.465       .  S
C505        C539   1.465   1_556  S
C505        C555   1.466       .  S
C506        C540   1.443       .  S
C506        C511   1.401       .  A
C507        C533   1.443       .  S
C507        C508   1.401       .  A
C508        C509   1.401       .  A
C508        H513   1.085       .  S
C509        C531   1.443       .  S
C510        C538   1.443       .  S
C510        C511   1.401       .  A
C511        H512   1.085       .  S
C514        C530   1.466       .  S
C514        C532   1.465       .  S
C514        C614   1.465       .  S
C514        C638   1.466       .  S
O515        C525   1.280       .  A
O516       Ni763   1.918   1_655  S
O516        C526   1.280       .  A
O517       Ni523   1.918   1_655  S
O517        C527   1.280       .  A
O518        C528   1.280       .  A
O519        C688   1.280   1_554  A
O520       Ni764   1.918   1_545  S
O520        C687   1.280       .  A
O521       Ni524   1.918       .  S
O521        C686   1.280   1_554  A
O522        C685   1.280       .  A
Ni523       O756   1.918   1_445  S
Ni523      Ni844   2.394   1_545  S
Ni524       O760   1.918       .  S
Ni524      Ni923   2.394   1_654  S
C525        O602   1.280       .  A
C525        C547   1.434       .  S
C526        O601   1.280       .  A
C526        C542   1.434       .  S
C527        O600   1.280       .  A
C527        C529   1.434       .  S
C528        O599   1.280       .  A
C528        C535   1.434       .  S
C529        C530   1.206       .  T
C531        C532   1.206       .  T
C533        C534   1.206       .  T
C534        C674   1.465       .  S
C535        C536   1.206       .  T
C536        C585   1.466       .  S
C537        C585   1.465       .  S
C537        C538   1.206       .  T
C539        C540   1.206       .  T
C541        C584   1.466       .  S
C541        C542   1.206       .  T
C543        C544   1.206       .  T
C544        C584   1.465       .  S
C545        C546   1.206       .  T
C547        C548   1.206       .  T
C548        C575   1.466       .  S
C549        C550   1.206       .  T
C550        C575   1.465       .  S
C551        C552   1.206       .  T
C553        C634   1.206       .  T
C554        C713   1.206       .  T
C555        C556   1.206       .  T
C557        C558   1.206       .  T
C558        C674   1.466       .  S
C559        C560   1.206       .  T
C560        C584   1.466       .  S
O561       Ni569   1.918       .  S
O561        C651   1.280       .  A
O562       Ni569   1.918       .  S
O562        C652   1.280       .  A
O563       Ni569   1.918       .  S
O563        C573   1.280       .  A
O564       Ni569   1.918       .  S
O564        C574   1.280       .  A
O565       Ni570   1.918       .  S
O566       Ni570   1.918       .  S
O567       Ni570   1.918       .  S
O567        C572   1.280       .  A
O568       Ni570   1.918       .  S
O568        C571   1.280       .  A
Ni569      Ni650   2.394       .  S
C571        C636   1.434       .  S
C572        C637   1.434       .  S
C573        O646   1.280       .  A
C573        C633   1.434       .  S
C574        O645   1.280       .  A
C574        C639   1.434       .  S
C575        C631   1.465       .  S
C575        C634   1.466       .  S
C576        C632   1.443       .  S
C576        C817   1.407   1_545  A
C576        C581   1.401       .  A
C577        C625   1.443       .  S
C577        C816   1.407       .  A
C577        C578   1.401       .  A
C578        C579   1.401       .  A
C578        H583   1.085       .  S
C579        C623   1.443       .  S
C579        C820   1.407       .  A
C580        C629   1.443       .  S
C580        C819   1.407   1_545  A
C580        C581   1.401       .  A
C581        H582   1.085       .  S
C584        C626   1.465       .  S
C585        C619   1.465       .  S
C585        C635   1.466       .  S
C586        C620   1.443       .  S
C586        C591   1.401       .  A
C587        C613   1.443       .  S
C587        C588   1.401       .  A
C588        C589   1.401       .  A
C588        H593   1.085       .  S
C589        C611   1.443       .  S
C590        C618   1.443       .  S
C590        C591   1.401       .  A
C591        H592   1.085       .  S
C594        C610   1.466       .  S
C594        C612   1.465       .  S
C594        C694   1.465       .  S
C594        C718   1.466       .  S
O595        C605   1.280       .  A
O596       Ni843   1.918   1_655  S
O596        C606   1.280       .  A
O597       Ni603   1.918   1_645  S
O597        C607   1.280       .  A
O598        C608   1.280       .  A
O600       Ni844   1.918   1_645  S
O601       Ni604   1.918   1_655  S
Ni603       O836   1.918   1_455  S
Ni603      Ni924   2.394       .  S
Ni604       O840   1.918   1_455  S
Ni604      Ni763   2.394       .  S
C605        O682   1.280       .  A
C605        C627   1.434       .  S
C606        O681   1.280       .  A
C606        C622   1.434       .  S
C607        O680   1.280       .  A
C607        C609   1.434       .  S
C608        O679   1.280       .  A
C608        C615   1.434       .  S
C609        C610   1.206       .  T
C611        C612   1.206       .  T
C613        C614   1.206       .  T
C615        C616   1.206       .  T
C616        C665   1.466       .  S
C617        C665   1.465       .  S
C617        C618   1.206       .  T
C619        C620   1.206       .  T
C621        C664   1.466       .  S
C621        C622   1.206       .  T
C623        C624   1.206       .  T
C624        C664   1.465       .  S
C625        C626   1.206       .  T
C627        C628   1.206       .  T
C628        C655   1.466       .  S
C629        C630   1.206       .  T
C630        C655   1.465       .  S
C631        C632   1.206       .  T
C633        C714   1.206       .  T
C635        C636   1.206       .  T
C637        C638   1.206       .  T
C639        C640   1.206       .  T
C640        C664   1.466       .  S
O641       Ni649   1.918       .  S
O642       Ni649   1.918       .  S
O643       Ni649   1.918       .  S
O643        C653   1.280   1_556  A
O644       Ni649   1.918       .  S
O644        C654   1.280       .  A
O645       Ni650   1.918       .  S
O646       Ni650   1.918       .  S
O647       Ni650   1.918       .  S
O647        C652   1.280       .  A
O648       Ni650   1.918       .  S
O648        C651   1.280       .  A
C651        C716   1.434       .  S
C652        C717   1.434       .  S
C653        C713   1.434       .  S
C654        C719   1.434       .  S
C655        C711   1.465       .  S
C655        C714   1.466       .  S
C656        C712   1.443       .  S
C656        C897   1.407   1_545  A
C656        C661   1.401       .  A
C657        C705   1.443       .  S
C657        C896   1.407       .  A
C657        C658   1.401       .  A
C658        C659   1.401       .  A
C658        H663   1.085       .  S
C659        C703   1.443       .  S
C659        C900   1.407       .  A
C660        C709   1.443       .  S
C660        C899   1.407   1_545  A
C660        C661   1.401       .  A
C661        H662   1.085       .  S
C664        C706   1.465       .  S
C665        C699   1.465       .  S
C665        C715   1.466       .  S
C666        C700   1.443       .  S
C666        C671   1.401       .  A
C667        C693   1.443       .  S
C667        C668   1.401       .  A
C668        C669   1.401       .  A
C668        H673   1.085       .  S
C669        C691   1.443       .  S
C670        C698   1.443       .  S
C670        C671   1.401       .  A
C671        H672   1.085       .  S
C674        C690   1.466       .  S
C674        C692   1.465   1_554  S
O675        C685   1.280   1_556  A
O676       Ni923   1.918   1_655  S
O676        C686   1.280       .  A
O677       Ni683   1.918   1_645  S
O677        C687   1.280   1_556  A
O678        C688   1.280       .  A
O680       Ni924   1.918   1_645  S
O681       Ni684   1.918   1_655  S
Ni683       O916   1.918   1_455  S
Ni683      Ni764   2.394   1_456  S
Ni684       O920   1.918   1_455  S
Ni684      Ni843   2.394       .  S
C685        C707   1.434       .  S
C686        C702   1.434       .  S
C687        C689   1.434       .  S
C688        C695   1.434       .  S
C689        C690   1.206       .  T
C691        C692   1.206       .  T
C693        C694   1.206       .  T
C695        C696   1.206       .  T
C697        C698   1.206       .  T
C699        C700   1.206       .  T
C701        C702   1.206       .  T
C703        C704   1.206       .  T
C705        C706   1.206       .  T
C707        C708   1.206       .  T
C709        C710   1.206       .  T
C711        C712   1.206       .  T
C715        C716   1.206       .  T
C717        C718   1.206       .  T
C719        C720   1.206       .  T
O721       Ni729   1.918       .  S
O721        C811   1.280       .  A
O722       Ni729   1.918       .  S
O722        C812   1.280       .  A
O723       Ni729   1.918       .  S
O723        C733   1.280       .  A
O724       Ni729   1.918       .  S
O724        C734   1.280       .  A
O725       Ni730   1.918       .  S
O725        C894   1.280   1_554  A
O726       Ni730   1.918       .  S
O726        C893   1.280       .  A
O727       Ni730   1.918       .  S
O727        C732   1.280       .  A
O728       Ni730   1.918       .  S
O728        C731   1.280   1_554  A
Ni729      Ni810   2.394       .  S
Ni730      Ni889   2.394   1_554  S
C731        O881   1.280       .  A
C731        C796   1.434       .  S
C732        O882   1.280   1_554  A
C732        C797   1.434       .  S
C733        O806   1.280       .  A
C733        C793   1.434       .  S
C734        O805   1.280       .  A
C734        C799   1.434       .  S
C735        C948   1.466       .  S
C735        C950   1.465   1_554  S
C735        C791   1.465       .  S
C735        C794   1.466       .  S
C736        C792   1.443       .  S
C736        C741   1.401       .  A
C737        C785   1.443       .  S
C737        C738   1.401       .  A
C738        C739   1.401       .  A
C738        H743   1.085       .  S
C739        C783   1.443       .  S
C740        C789   1.443       .  S
C740        C741   1.401       .  A
C741        H742   1.085       .  S
C744        C941   1.466       .  S
C744        C944   1.465       .  S
C744        C786   1.465   1_556  S
C744        C960   1.466       .  S
C745        C936   1.466       .  S
C745        C937   1.465       .  S
C745        C779   1.465   1_556  S
C745        C795   1.466       .  S
C746        C780   1.443       .  S
C746        C751   1.401       .  A
C747        C773   1.443       .  S
C747        C748   1.401       .  A
C748        C749   1.401       .  A
C748        H753   1.085       .  S
C749        C771   1.443       .  S
C750        C778   1.443       .  S
C750        C751   1.401       .  A
C751        H752   1.085       .  S
C754        C770   1.466       .  S
C754        C772   1.465       .  S
C754        C854   1.465       .  S
C754        C878   1.466       .  S
O755        C765   1.280       .  A
O756        C766   1.280       .  A
O757       Ni763   1.918   1_655  S
O757        C767   1.280       .  A
O758        C768   1.280       .  A
O759        C928   1.280   1_554  A
O760        C927   1.280       .  A
O761       Ni764   1.918       .  S
O761        C926   1.280   1_554  A
O762        C925   1.280       .  A
C765        O842   1.280       .  A
C765        C787   1.434       .  S
C766        O841   1.280       .  A
C766        C782   1.434       .  S
C767        O840   1.280       .  A
C767        C769   1.434       .  S
C768        O839   1.280       .  A
C768        C775   1.434       .  S
C769        C770   1.206       .  T
C771        C772   1.206       .  T
C773        C774   1.206       .  T
C774        C914   1.465       .  S
C775        C776   1.206       .  T
C776        C825   1.466       .  S
C777        C825   1.465       .  S
C777        C778   1.206       .  T
C779        C780   1.206       .  T
C781        C824   1.466       .  S
C781        C782   1.206       .  T
C783        C784   1.206       .  T
C784        C824   1.465       .  S
C785        C786   1.206       .  T
C787        C788   1.206       .  T
C788        C815   1.466       .  S
C789        C790   1.206       .  T
C790        C815   1.465       .  S
C791        C792   1.206       .  T
C793        C874   1.206       .  T
C794        C953   1.206       .  T
C795        C796   1.206       .  T
C797        C798   1.206       .  T
C798        C914   1.466       .  S
C799        C800   1.206       .  T
C800        C824   1.466       .  S
O801       Ni809   1.918       .  S
O801        C891   1.280       .  A
O802       Ni809   1.918       .  S
O802        C892   1.280       .  A
O803       Ni809   1.918       .  S
O803        C813   1.280       .  A
O804       Ni809   1.918       .  S
O804        C814   1.280       .  A
O805       Ni810   1.918       .  S
O806       Ni810   1.918       .  S
O807       Ni810   1.918       .  S
O807        C812   1.280       .  A
O808       Ni810   1.918       .  S
O808        C811   1.280       .  A
Ni809      Ni890   2.394       .  S
C811        C876   1.434       .  S
C812        C877   1.434       .  S
C813        O886   1.280       .  A
C813        C873   1.434       .  S
C814        O885   1.280       .  A
C814        C879   1.434       .  S
C815        C871   1.465       .  S
C815        C874   1.466       .  S
C816        C872   1.443       .  S
C816        C821   1.401       .  A
C817        C865   1.443       .  S
C817        C818   1.401       .  A
C818        C819   1.401       .  A
C818        H823   1.085       .  S
C819        C863   1.443       .  S
C820        C869   1.443       .  S
C820        C821   1.401       .  A
C821        H822   1.085       .  S
C824        C866   1.465       .  S
C825        C859   1.465       .  S
C825        C875   1.466       .  S
C826        C860   1.443       .  S
C826        C831   1.401       .  A
C827        C853   1.443       .  S
C827        C828   1.401       .  A
C828        C829   1.401       .  A
C828        H833   1.085       .  S
C829        C851   1.443       .  S
C830        C858   1.443       .  S
C830        C831   1.401       .  A
C831        H832   1.085       .  S
C834        C850   1.466       .  S
C834        C852   1.465       .  S
C834        C934   1.465       .  S
C834        C958   1.466       .  S
O835        C845   1.280       .  A
O836        C846   1.280       .  A
O837       Ni843   1.918   1_655  S
O837        C847   1.280       .  A
O838        C848   1.280       .  A
O841       Ni844   1.918   1_655  S
C845        O922   1.280       .  A
C845        C867   1.434       .  S
C846        O921   1.280       .  A
C846        C862   1.434       .  S
C847        O920   1.280       .  A
C847        C849   1.434       .  S
C848        O919   1.280       .  A
C848        C855   1.434       .  S
C849        C850   1.206       .  T
C851        C852   1.206       .  T
C853        C854   1.206       .  T
C855        C856   1.206       .  T
C856        C905   1.466       .  S
C857        C905   1.465       .  S
C857        C858   1.206       .  T
C859        C860   1.206       .  T
C861        C904   1.466       .  S
C861        C862   1.206       .  T
C863        C864   1.206       .  T
C864        C904   1.465       .  S
C865        C866   1.206       .  T
C867        C868   1.206       .  T
C868        C895   1.466       .  S
C869        C870   1.206       .  T
C870        C895   1.465       .  S
C871        C872   1.206       .  T
C873        C954   1.206       .  T
C875        C876   1.206       .  T
C877        C878   1.206       .  T
C879        C880   1.206       .  T
C880        C904   1.466       .  S
O881       Ni889   1.918       .  S
O882       Ni889   1.918       .  S
O883       Ni889   1.918       .  S
O883        C893   1.280   1_556  A
O884       Ni889   1.918       .  S
O884        C894   1.280       .  A
O885       Ni890   1.918       .  S
O886       Ni890   1.918       .  S
O887       Ni890   1.918       .  S
O887        C892   1.280       .  A
O888       Ni890   1.918       .  S
O888        C891   1.280       .  A
C891        C956   1.434       .  S
C892        C957   1.434       .  S
C893        C953   1.434       .  S
C894        C959   1.434       .  S
C895        C951   1.465       .  S
C895        C954   1.466       .  S
C896        C952   1.443       .  S
C896        C901   1.401       .  A
C897        C945   1.443       .  S
C897        C898   1.401       .  A
C898        C899   1.401       .  A
C898        H903   1.085       .  S
C899        C943   1.443       .  S
C900        C949   1.443       .  S
C900        C901   1.401       .  A
C901        H902   1.085       .  S
C904        C946   1.465       .  S
C905        C939   1.465       .  S
C905        C955   1.466       .  S
C906        C940   1.443       .  S
C906        C911   1.401       .  A
C907        C933   1.443       .  S
C907        C908   1.401       .  A
C908        C909   1.401       .  A
C908        H913   1.085       .  S
C909        C931   1.443       .  S
C910        C938   1.443       .  S
C910        C911   1.401       .  A
C911        H912   1.085       .  S
C914        C930   1.466       .  S
C914        C932   1.465   1_554  S
O915        C925   1.280   1_556  A
O916        C926   1.280       .  A
O917       Ni923   1.918   1_655  S
O917        C927   1.280   1_556  A
O918        C928   1.280       .  A
O921       Ni924   1.918   1_655  S
C925        C947   1.434       .  S
C926        C942   1.434       .  S
C927        C929   1.434       .  S
C928        C935   1.434       .  S
C929        C930   1.206       .  T
C931        C932   1.206       .  T
C933        C934   1.206       .  T
C935        C936   1.206       .  T
C937        C938   1.206       .  T
C939        C940   1.206       .  T
C941        C942   1.206       .  T
C943        C944   1.206       .  T
C945        C946   1.206       .  T
C947        C948   1.206       .  T
C949        C950   1.206       .  T
C951        C952   1.206       .  T
C955        C956   1.206       .  T
C957        C958   1.206       .  T
C959        C960   1.206       .  T
